# Name and address of author for correspondence
 
_publ_contact_author_name       'Redhammer, Guenther J.'
_publ_contact_author_address
;
University of Salzburg
Department of Chemistry & Physics of Materials
Division of Mineralogy
Hellbrunnerstr 34
5020 Salzburg
Austria
;
_publ_contact_author_email       'guenther.redhammer@sbg.ac.at'
_publ_contact_author_fax         '0043 662 8044 622'
_publ_contact_author_phone       '0043 662 8044 5423' 

data_shelx
 
_audit_creation_method            'SHELXL-2014/7'
_shelx_SHELXL_version_number      '2014/7'
_chemical_name_systematic         ?
_chemical_name_common             ?
_chemical_melting_point           ?
_chemical_formula_moiety          ?
_chemical_formula_sum
 'Al0.23 La2.95 Li5.88 O12 Zr2.00' 
_chemical_formula_weight          423.31

loop_
 _atom_type_symbol
 _atom_type_description
 _atom_type_scat_dispersion_real
 _atom_type_scat_dispersion_imag
 _atom_type_scat_source
 'Li'  'Li'  -0.0003   0.0001
 'International Tables Vol C Tables 4.2.6.8 and 6.1.1.4'
 'O'  'O'   0.0106   0.0060
 'International Tables Vol C Tables 4.2.6.8 and 6.1.1.4'
 'Al'  'Al'   0.0645   0.0514
 'International Tables Vol C Tables 4.2.6.8 and 6.1.1.4'
 'Zr'  'Zr'  -2.9673   0.5597
 'International Tables Vol C Tables 4.2.6.8 and 6.1.1.4'
 'La'  'La'  -0.2871   2.4523
 'International Tables Vol C Tables 4.2.6.8 and 6.1.1.4'
 'H'  'H'   0.0000   0.0000
 'International Tables Vol C Tables 4.2.6.8 and 6.1.1.4'
 
_space_group_crystal_system       cubic
_space_group_IT_number            230
_space_group_name_H-M_alt         'I a -3 d'
_space_group_name_Hall            '-I 4bd 2c 3'
 
_shelx_space_group_comment
;
The symmetry employed for this shelxl refinement is uniquely defined
by the following loop, which should always be used as a source of
symmetry information in preference to the above space-group names.
They are only intended as comments.
;
 
loop_
 _space_group_symop_operation_xyz
 'x, y, z'
 'x, -y, -z+1/2'
 '-x+1/2, -y, z+1/2'
 '-x+1/2, y, -z'
 '-y+1/4, x+3/4, z+1/4'
 'y+1/4, x+3/4, -z+3/4'
 'y+1/4, -x+1/4, z+3/4'
 '-y+1/4, -x+1/4, -z+1/4'
 'y, z, x'
 '-y+1/2, -z, x+1/2'
 'y, -z, -x+1/2'
 '-y+1/2, z, -x'
 '-z+1/4, y+3/4, x+1/4'
 '-z+1/4, -y+1/4, -x+1/4'
 'z+1/4, -y+1/4, x+3/4'
 'z+1/4, y+3/4, -x+3/4'
 'z, x, y'
 '-z, x+1/2, -y+1/2'
 '-z, -x+1/2, y'
 'z, -x, -y+1/2'
 '-x+1/4, -z+1/4, -y+1/4'
 '-x+1/4, z+3/4, y+1/4'
 'x+3/4, -z+3/4, y+1/4'
 'x+1/4, z+3/4, -y+3/4'
 'x+1/2, y+1/2, z+1/2'
 'x+1/2, -y+1/2, -z+1'
 '-x+1, -y+1/2, z+1'
 '-x+1, y+1/2, -z+1/2'
 '-y+3/4, x+5/4, z+3/4'
 'y+3/4, x+5/4, -z+5/4'
 'y+3/4, -x+3/4, z+5/4'
 '-y+3/4, -x+3/4, -z+3/4'
 'y+1/2, z+1/2, x+1/2'
 '-y+1, -z+1/2, x+1'
 'y+1/2, -z+1/2, -x+1'
 '-y+1, z+1/2, -x+1/2'
 '-z+3/4, y+5/4, x+3/4'
 '-z+3/4, -y+3/4, -x+3/4'
 'z+3/4, -y+3/4, x+5/4'
 'z+3/4, y+5/4, -x+5/4'
 'z+1/2, x+1/2, y+1/2'
 '-z+1/2, x+1, -y+1'
 '-z+1/2, -x+1, y+1/2'
 'z+1/2, -x+1/2, -y+1'
 '-x+3/4, -z+3/4, -y+3/4'
 '-x+3/4, z+5/4, y+3/4'
 'x+5/4, -z+5/4, y+3/4'
 'x+3/4, z+5/4, -y+5/4'
 '-x, -y, -z'
 '-x, y, z-1/2'
 'x-1/2, y, -z-1/2'
 'x-1/2, -y, z'
 'y-1/4, -x-3/4, -z-1/4'
 '-y-1/4, -x-3/4, z-3/4'
 '-y-1/4, x-1/4, -z-3/4'
 'y-1/4, x-1/4, z-1/4'
 '-y, -z, -x'
 'y-1/2, z, -x-1/2'
 '-y, z, x-1/2'
 'y-1/2, -z, x'
 'z-1/4, -y-3/4, -x-1/4'
 'z-1/4, y-1/4, x-1/4'
 '-z-1/4, y-1/4, -x-3/4'
 '-z-1/4, -y-3/4, x-3/4'
 '-z, -x, -y'
 'z, -x-1/2, y-1/2'
 'z, x-1/2, -y'
 '-z, x, y-1/2'
 'x-1/4, z-1/4, y-1/4'
 'x-1/4, -z-3/4, -y-1/4'
 '-x-3/4, z-3/4, -y-1/4'
 '-x-1/4, -z-3/4, y-3/4'
 '-x+1/2, -y+1/2, -z+1/2'
 '-x+1/2, y+1/2, z'
 'x, y+1/2, -z'
 'x, -y+1/2, z+1/2'
 'y+1/4, -x-1/4, -z+1/4'
 '-y+1/4, -x-1/4, z-1/4'
 '-y+1/4, x+1/4, -z-1/4'
 'y+1/4, x+1/4, z+1/4'
 '-y+1/2, -z+1/2, -x+1/2'
 'y, z+1/2, -x'
 '-y+1/2, z+1/2, x'
 'y, -z+1/2, x+1/2'
 'z+1/4, -y-1/4, -x+1/4'
 'z+1/4, y+1/4, x+1/4'
 '-z+1/4, y+1/4, -x-1/4'
 '-z+1/4, -y-1/4, x-1/4'
 '-z+1/2, -x+1/2, -y+1/2'
 'z+1/2, -x, y'
 'z+1/2, x, -y+1/2'
 '-z+1/2, x+1/2, y'
 'x+1/4, z+1/4, y+1/4'
 'x+1/4, -z-1/4, -y+1/4'
 '-x-1/4, z-1/4, -y+1/4'
 '-x+1/4, -z-1/4, y-1/4'
 
_cell_length_a                    12.9652(4)
_cell_length_b                    12.965
_cell_length_c                    12.965
_cell_angle_alpha                 90
_cell_angle_beta                  90
_cell_angle_gamma                 90
_cell_volume                      2179.4(2)
_cell_formula_units_Z             16
_cell_measurement_temperature     293(2)
_exptl_crystal_description        isometric
_exptl_crystal_colour             colorless
_exptl_crystal_density_diffrn     5.160          
_exptl_crystal_F_000              2971
_exptl_crystal_size_max           0.170
_exptl_crystal_size_mid           0.165
_exptl_crystal_size_min           0.16
_exptl_absorpt_coefficient_mu     13.436
_exptl_absorpt_correction_type          
empirical
_exptl_absorpt_process_details
;
multiscan absorption correction using APEX-2 suite (Bruker, 2008)
;
_exptl_absorpt_correction_T_max          0.746
_exptl_absorpt_correction_T_min          0.679

_diffrn_ambient_temperature             295(2)
_diffrn_radiation_type                  MoK\a
_diffrn_radiation_wavelength            0.71073
_diffrn_source                          '3-circle diffractometer'
_diffrn_radiation_monochromator         graphite
_diffrn_measurement_device_type         'SMART APEX'
_diffrn_measurement_method              '\w-scan at 4 different \f positions'
_diffrn_reflns_number             12617
_diffrn_reflns_av_unetI/netI      0.0062
_diffrn_reflns_av_R_equivalents   0.0246
_diffrn_reflns_limit_h_min        -17
_diffrn_reflns_limit_h_max        18
_diffrn_reflns_limit_k_min        -18
_diffrn_reflns_limit_k_max        17
_diffrn_reflns_limit_l_min        -17
_diffrn_reflns_limit_l_max        18
_diffrn_reflns_theta_min          3.850
_diffrn_reflns_theta_max          29.962
_diffrn_reflns_theta_full         25.242
_diffrn_measured_fraction_theta_max   0.996
_diffrn_measured_fraction_theta_full  1.000
_diffrn_reflns_Laue_measured_fraction_max    0.996
_diffrn_reflns_Laue_measured_fraction_full   1.000
_diffrn_reflns_point_group_measured_fraction_max   0.996
_diffrn_reflns_point_group_measured_fraction_full  1.000
_reflns_number_total              268
_reflns_number_gt                 266
_reflns_threshold_expression      'I > 2\s(I)'
_reflns_Friedel_coverage          0.000
_reflns_Friedel_fraction_max      .
_reflns_Friedel_fraction_full     .
 
_reflns_special_details
;
 Reflections were merged by SHELXL according to the crystal
 class for the calculation of statistics and refinement.
 
 _reflns_Friedel_fraction is defined as the number of unique
 Friedel pairs measured divided by the number that would be
 possible theoretically, ignoring centric projections and
 systematic absences.
;
 
_computing_data_collection        ?
_computing_cell_refinement        ?
_computing_data_reduction         ?
_computing_structure_solution     ?
_computing_structure_refinement 'SHELXL-2014/7 (Sheldrick, 2014)'
_computing_molecular_graphics     ?
_computing_publication_material   ?
_refine_special_details           ?
_refine_ls_structure_factor_coef  Fsqd
_refine_ls_matrix_type            full
_refine_ls_weighting_scheme       calc
_refine_ls_weighting_details
'w=1/[\s^2^(Fo^2^)+(0.0049P)^2^+25.4754P] where P=(Fo^2^+2Fc^2^)/3'
_atom_sites_solution_primary      ?
_atom_sites_solution_secondary    ?
_atom_sites_solution_hydrogens    .
_refine_ls_hydrogen_treatment     undef
_refine_ls_extinction_method      'SHELXL-2014/7 (Sheldrick 2014'
_refine_ls_extinction_coef        0.00034(4)
_refine_ls_extinction_expression
 'Fc^*^=kFc[1+0.001xFc^2^\l^3^/sin(2\q)]^-1/4^'
_refine_ls_number_reflns          268
_refine_ls_number_parameters      24
_refine_ls_number_restraints      0
_refine_ls_R_factor_all           0.0195
_refine_ls_R_factor_gt            0.0189
_refine_ls_wR_factor_ref          0.0355
_refine_ls_wR_factor_gt           0.0352
_refine_ls_goodness_of_fit_ref    1.518
_refine_ls_restrained_S_all       1.518
_refine_ls_shift/su_max           0.000
_refine_ls_shift/su_mean          0.000
 
loop_
 _atom_site_label
 _atom_site_type_symbol
 _atom_site_fract_x
 _atom_site_fract_y
 _atom_site_fract_z
 _atom_site_U_iso_or_equiv
 _atom_site_adp_type
 _atom_site_occupancy
 _atom_site_site_symmetry_order  
 _atom_site_calc_flag
 _atom_site_refinement_flags_posn
 _atom_site_refinement_flags_adp
 _atom_site_refinement_flags_occupancy
 _atom_site_disorder_assembly
 _atom_site_disorder_group
O1 O 0.1000(2) 0.1956(2) 0.2816(2) 0.0118(6) Uani 1 1 d . . . . .
La1 La 0.1250 0.0000 0.2500 0.00964(16) Uani 0.985(4) 4 d S T . . .
Zr1 Zr 0.0000 0.0000 0.0000 0.0071(3) Uani 1 6 d S T P . .
Li1 Li 0.3750 0.0000 0.2500 0.022(8) Uiso 0.69(8) 4 d S . . . .
Al1 Al 0.3750 0.0000 0.2500 0.02(2) Uiso 0.072 4 d S . P . .
Li2 Li 0.0991(13) 0.1877(15) 0.4260(15) 0.011(6) Uiso 0.32(3) 1 d . . . . .
 
loop_
 _atom_site_aniso_label
 _atom_site_aniso_U_11
 _atom_site_aniso_U_22
 _atom_site_aniso_U_33
 _atom_site_aniso_U_23
 _atom_site_aniso_U_13
 _atom_site_aniso_U_12
O1 0.0090(12) 0.0119(13) 0.0143(13) 0.0005(10) -0.0003(9) -0.0023(10)
La1 0.0116(2) 0.00868(18) 0.00868(18) 0.00179(14) 0.000 0.000
Zr1 0.0071(3) 0.0071(3) 0.0071(3) 0.00036(17) 0.00036(17) 0.00036(17)
 
_geom_special_details
;
 All esds (except the esd in the dihedral angle between two l.s. planes)
 are estimated using the full covariance matrix.  The cell esds are taken
 into account individually in the estimation of esds in distances, angles
 and torsion angles; correlations between esds in cell parameters are only
 used when they are defined by crystal symmetry.  An approximate (isotropic)
 treatment of cell esds is used for estimating esds involving l.s. planes.
;
 
loop_
 _geom_bond_atom_site_label_1
 _geom_bond_atom_site_label_2
 _geom_bond_distance
 _geom_bond_site_symmetry_2
 _geom_bond_publ_flag
O1 Li2 1.87(2) . ?
O1 Al1 1.909(3) 9 ?
O1 Li1 1.909(3) 9 ?
O1 Zr1 2.109(3) 8 ?
O1 Li2 2.121(18) 79_556 ?
O1 Li2 2.14(2) 22_545 ?
O1 Li2 2.252(19) 53_566 ?
O1 La1 2.510(3) 9 ?
O1 La1 2.590(3) . ?
O1 Li2 2.611(19) 91_455 ?
La1 O1 2.510(3) 17 ?
La1 O1 2.510(3) 14 ?
La1 O1 2.510(3) 20 ?
La1 O1 2.510(3) 13_545 ?
La1 O1 2.589(3) 2 ?
La1 O1 2.589(3) 22_545 ?
La1 O1 2.589(3) 21 ?
La1 Li2 2.994(19) 90_455 ?
La1 Li2 2.994(19) 64_666 ?
La1 Li2 2.994(19) 91_455 ?
La1 Li2 2.994(19) 63_656 ?
Zr1 O1 2.109(3) 69 ?
Zr1 O1 2.109(3) 21 ?
Zr1 O1 2.109(3) 8 ?
Zr1 O1 2.109(3) 56 ?
Zr1 O1 2.109(3) 14 ?
Zr1 O1 2.109(3) 62 ?
Zr1 Li2 2.91(2) 90_455 ?
Zr1 Li2 2.91(2) 42_544 ?
Zr1 Li2 2.91(2) 82_545 ?
Zr1 Li2 2.91(2) 34_454 ?
Zr1 Li2 2.91(2) 50 ?
Zr1 Li2 2.91(2) 2 ?
Li1 Li2 1.655(18) 63_656 ?
Li1 Li2 1.655(18) 64_666 ?
Li1 Li2 1.655(18) 17 ?
Li1 Li2 1.655(18) 20 ?
Li1 O1 1.909(3) 64_666 ?
Li1 O1 1.909(3) 20 ?
Li1 O1 1.909(3) 63_656 ?
Li1 O1 1.909(3) 17 ?
Li1 Li2 2.326(18) 83_545 ?
Li1 Li2 2.326(18) 81 ?
Li1 Li2 2.326(18) 7_554 ?
Li1 Li2 2.326(18) 6_545 ?
Li2 Li2 0.71(3) 22_545 ?
Li2 Al1 1.655(18) 9 ?
Li2 Li1 1.655(18) 9 ?
Li2 O1 2.121(18) 53_566 ?
Li2 O1 2.14(2) 22_545 ?
Li2 O1 2.252(19) 79_556 ?
Li2 Al1 2.326(18) 5_545 ?
Li2 Li1 2.326(18) 5_545 ?
Li2 Li2 2.52(3) 53_566 ?
Li2 Li2 2.52(3) 79_556 ?
Li2 O1 2.611(19) 84 ?
 
loop_
 _geom_angle_atom_site_label_1
 _geom_angle_atom_site_label_2
 _geom_angle_atom_site_label_3
 _geom_angle
 _geom_angle_site_symmetry_1
 _geom_angle_site_symmetry_3
 _geom_angle_publ_flag
Li2 O1 Al1 51.9(5) . 9 ?
Li2 O1 Li1 51.9(5) . 9 ?
Al1 O1 Li1 0.0 9 9 ?
Li2 O1 Zr1 102.6(6) . 8 ?
Al1 O1 Zr1 128.77(14) 9 8 ?
Li1 O1 Zr1 128.77(14) 9 8 ?
Li2 O1 Li2 77.9(8) . 79_556 ?
Al1 O1 Li2 48.1(6) 9 79_556 ?
Li1 O1 Li2 48.1(6) 9 79_556 ?
Zr1 O1 Li2 87.1(5) 8 79_556 ?
Li2 O1 Li2 18.7(9) . 22_545 ?
Al1 O1 Li2 69.8(5) 9 22_545 ?
Li1 O1 Li2 69.8(5) 9 22_545 ?
Zr1 O1 Li2 86.5(5) 8 22_545 ?
Li2 O1 Li2 86.43(12) 79_556 22_545 ?
Li2 O1 Li2 74.7(7) . 53_566 ?
Al1 O1 Li2 46.0(5) 9 53_566 ?
Li1 O1 Li2 46.0(5) 9 53_566 ?
Zr1 O1 Li2 174.7(5) 8 53_566 ?
Li2 O1 Li2 87.9(7) 79_556 53_566 ?
Li2 O1 Li2 91.5(9) 22_545 53_566 ?
Li2 O1 La1 145.0(5) . 9 ?
Al1 O1 La1 93.34(10) 9 9 ?
Li1 O1 La1 93.34(10) 9 9 ?
Zr1 O1 La1 103.02(10) 8 9 ?
Li2 O1 La1 80.1(5) 79_556 9 ?
Li2 O1 La1 162.9(5) 22_545 9 ?
Li2 O1 La1 77.7(5) 53_566 9 ?
Li2 O1 La1 96.0(6) . . ?
Al1 O1 La1 123.16(12) 9 . ?
Li1 O1 La1 123.16(12) 9 . ?
Zr1 O1 La1 100.45(10) 8 . ?
Li2 O1 La1 171.3(6) 79_556 . ?
Li2 O1 La1 89.7(5) 22_545 . ?
Li2 O1 La1 84.5(4) 53_566 . ?
La1 O1 La1 102.22(9) 9 . ?
Li2 O1 Li2 79.4(9) . 91_455 ?
Al1 O1 Li2 59.6(4) 9 91_455 ?
Li1 O1 Li2 59.6(4) 9 91_455 ?
Zr1 O1 Li2 170.7(4) 8 91_455 ?
Li2 O1 Li2 102.2(6) 79_556 91_455 ?
Li2 O1 Li2 93.7(5) 22_545 91_455 ?
Li2 O1 Li2 14.4(7) 53_566 91_455 ?
La1 O1 Li2 79.1(5) 9 91_455 ?
La1 O1 Li2 70.3(4) . 91_455 ?
O1 La1 O1 111.35(13) 17 14 ?
O1 La1 O1 72.03(12) 17 20 ?
O1 La1 O1 160.81(11) 14 20 ?
O1 La1 O1 160.81(11) 17 13_545 ?
O1 La1 O1 72.03(12) 14 13_545 ?
O1 La1 O1 111.35(13) 20 13_545 ?
O1 La1 O1 124.24(6) 17 2 ?
O1 La1 O1 95.29(8) 14 2 ?
O1 La1 O1 68.88(11) 20 2 ?
O1 La1 O1 72.88(9) 13_545 2 ?
O1 La1 O1 95.29(8) 17 22_545 ?
O1 La1 O1 124.24(6) 14 22_545 ?
O1 La1 O1 72.88(9) 20 22_545 ?
O1 La1 O1 68.88(11) 13_545 22_545 ?
O1 La1 O1 109.01(12) 2 22_545 ?
O1 La1 O1 72.88(9) 17 21 ?
O1 La1 O1 68.88(11) 14 21 ?
O1 La1 O1 95.29(8) 20 21 ?
O1 La1 O1 124.24(6) 13_545 21 ?
O1 La1 O1 72.88(12) 2 21 ?
O1 La1 O1 165.64(11) 22_545 21 ?
O1 La1 O1 68.88(11) 17 . ?
O1 La1 O1 72.88(9) 14 . ?
O1 La1 O1 124.24(6) 20 . ?
O1 La1 O1 95.29(8) 13_545 . ?
O1 La1 O1 165.64(11) 2 . ?
O1 La1 O1 72.88(12) 22_545 . ?
O1 La1 O1 109.01(12) 21 . ?
O1 La1 Li2 147.5(4) 17 90_455 ?
O1 La1 Li2 44.3(3) 14 90_455 ?
O1 La1 Li2 123.5(3) 20 90_455 ?
O1 La1 Li2 47.3(4) 13_545 90_455 ?
O1 La1 Li2 55.2(3) 2 90_455 ?
O1 La1 Li2 116.1(4) 22_545 90_455 ?
O1 La1 Li2 77.0(4) 21 90_455 ?
O1 La1 Li2 110.8(3) . 90_455 ?
O1 La1 Li2 44.3(3) 17 64_666 ?
O1 La1 Li2 147.5(4) 14 64_666 ?
O1 La1 Li2 47.3(4) 20 64_666 ?
O1 La1 Li2 123.5(3) 13_545 64_666 ?
O1 La1 Li2 116.1(4) 2 64_666 ?
O1 La1 Li2 55.2(3) 22_545 64_666 ?
O1 La1 Li2 110.8(3) 21 64_666 ?
O1 La1 Li2 77.0(4) . 64_666 ?
Li2 La1 Li2 167.1(7) 90_455 64_666 ?
O1 La1 Li2 123.5(3) 17 91_455 ?
O1 La1 Li2 47.3(4) 14 91_455 ?
O1 La1 Li2 147.5(4) 20 91_455 ?
O1 La1 Li2 44.3(3) 13_545 91_455 ?
O1 La1 Li2 110.8(3) 2 91_455 ?
O1 La1 Li2 77.0(4) 22_545 91_455 ?
O1 La1 Li2 116.1(4) 21 91_455 ?
O1 La1 Li2 55.2(3) . 91_455 ?
Li2 La1 Li2 60.9(7) 90_455 91_455 ?
Li2 La1 Li2 120.8(7) 64_666 91_455 ?
O1 La1 Li2 47.3(4) 17 63_656 ?
O1 La1 Li2 123.5(3) 14 63_656 ?
O1 La1 Li2 44.3(3) 20 63_656 ?
O1 La1 Li2 147.5(4) 13_545 63_656 ?
O1 La1 Li2 77.0(4) 2 63_656 ?
O1 La1 Li2 110.8(3) 22_545 63_656 ?
O1 La1 Li2 55.2(3) 21 63_656 ?
O1 La1 Li2 116.1(4) . 63_656 ?
Li2 La1 Li2 120.8(7) 90_455 63_656 ?
Li2 La1 Li2 60.9(7) 64_666 63_656 ?
Li2 La1 Li2 167.1(7) 91_455 63_656 ?
O1 Zr1 O1 180.0(2) 69 21 ?
O1 Zr1 O1 93.67(11) 69 8 ?
O1 Zr1 O1 86.33(11) 21 8 ?
O1 Zr1 O1 86.33(11) 69 56 ?
O1 Zr1 O1 93.67(11) 21 56 ?
O1 Zr1 O1 180.00(15) 8 56 ?
O1 Zr1 O1 93.67(11) 69 14 ?
O1 Zr1 O1 86.33(11) 21 14 ?
O1 Zr1 O1 86.33(11) 8 14 ?
O1 Zr1 O1 93.67(11) 56 14 ?
O1 Zr1 O1 86.33(11) 69 62 ?
O1 Zr1 O1 93.67(11) 21 62 ?
O1 Zr1 O1 93.67(11) 8 62 ?
O1 Zr1 O1 86.33(11) 56 62 ?
O1 Zr1 O1 180.00(15) 14 62 ?
O1 Zr1 Li2 93.5(4) 69 90_455 ?
O1 Zr1 Li2 86.5(4) 21 90_455 ?
O1 Zr1 Li2 132.8(3) 8 90_455 ?
O1 Zr1 Li2 47.2(3) 56 90_455 ?
O1 Zr1 Li2 46.6(3) 14 90_455 ?
O1 Zr1 Li2 133.4(3) 62 90_455 ?
O1 Zr1 Li2 86.5(4) 69 42_544 ?
O1 Zr1 Li2 93.5(4) 21 42_544 ?
O1 Zr1 Li2 47.2(3) 8 42_544 ?
O1 Zr1 Li2 132.8(3) 56 42_544 ?
O1 Zr1 Li2 133.4(3) 14 42_544 ?
O1 Zr1 Li2 46.6(3) 62 42_544 ?
Li2 Zr1 Li2 180.0(10) 90_455 42_544 ?
O1 Zr1 Li2 133.4(3) 69 82_545 ?
O1 Zr1 Li2 46.6(3) 21 82_545 ?
O1 Zr1 Li2 86.5(4) 8 82_545 ?
O1 Zr1 Li2 93.5(4) 56 82_545 ?
O1 Zr1 Li2 132.8(3) 14 82_545 ?
O1 Zr1 Li2 47.2(3) 62 82_545 ?
Li2 Zr1 Li2 119.86(5) 90_455 82_545 ?
Li2 Zr1 Li2 60.14(5) 42_544 82_545 ?
O1 Zr1 Li2 46.6(3) 69 34_454 ?
O1 Zr1 Li2 133.4(3) 21 34_454 ?
O1 Zr1 Li2 93.5(4) 8 34_454 ?
O1 Zr1 Li2 86.5(4) 56 34_454 ?
O1 Zr1 Li2 47.2(3) 14 34_454 ?
O1 Zr1 Li2 132.8(3) 62 34_454 ?
Li2 Zr1 Li2 60.14(5) 90_455 34_454 ?
Li2 Zr1 Li2 119.86(5) 42_544 34_454 ?
Li2 Zr1 Li2 180.0(11) 82_545 34_454 ?
O1 Zr1 Li2 47.2(3) 69 50 ?
O1 Zr1 Li2 132.8(3) 21 50 ?
O1 Zr1 Li2 46.6(3) 8 50 ?
O1 Zr1 Li2 133.4(3) 56 50 ?
O1 Zr1 Li2 86.5(4) 14 50 ?
O1 Zr1 Li2 93.5(4) 62 50 ?
Li2 Zr1 Li2 119.86(5) 90_455 50 ?
Li2 Zr1 Li2 60.14(5) 42_544 50 ?
Li2 Zr1 Li2 119.86(5) 82_545 50 ?
Li2 Zr1 Li2 60.14(5) 34_454 50 ?
O1 Zr1 Li2 132.8(3) 69 2 ?
O1 Zr1 Li2 47.2(3) 21 2 ?
O1 Zr1 Li2 133.4(3) 8 2 ?
O1 Zr1 Li2 46.6(3) 56 2 ?
O1 Zr1 Li2 93.5(4) 14 2 ?
O1 Zr1 Li2 86.5(4) 62 2 ?
Li2 Zr1 Li2 60.14(5) 90_455 2 ?
Li2 Zr1 Li2 119.86(5) 42_544 2 ?
Li2 Zr1 Li2 60.14(5) 82_545 2 ?
Li2 Zr1 Li2 119.86(5) 34_454 2 ?
Li2 Zr1 Li2 180.0(11) 50 2 ?
Li2 Li1 Li2 132.9(13) 63_656 64_666 ?
Li2 Li1 Li2 99.2(5) 63_656 17 ?
Li2 Li1 Li2 99.2(5) 64_666 17 ?
Li2 Li1 Li2 99.2(5) 63_656 20 ?
Li2 Li1 Li2 99.2(5) 64_666 20 ?
Li2 Li1 Li2 132.9(13) 17 20 ?
Li2 Li1 O1 163.9(7) 63_656 64_666 ?
Li2 Li1 O1 63.0(7) 64_666 64_666 ?
Li2 Li1 O1 78.0(7) 17 64_666 ?
Li2 Li1 O1 72.6(7) 20 64_666 ?
Li2 Li1 O1 72.6(7) 63_656 20 ?
Li2 Li1 O1 78.0(7) 64_666 20 ?
Li2 Li1 O1 163.9(7) 17 20 ?
Li2 Li1 O1 63.0(7) 20 20 ?
O1 Li1 O1 113.71(9) 64_666 20 ?
Li2 Li1 O1 63.0(7) 63_656 63_656 ?
Li2 Li1 O1 163.9(7) 64_666 63_656 ?
Li2 Li1 O1 72.6(7) 17 63_656 ?
Li2 Li1 O1 78.0(7) 20 63_656 ?
O1 Li1 O1 101.28(16) 64_666 63_656 ?
O1 Li1 O1 113.71(9) 20 63_656 ?
Li2 Li1 O1 78.0(7) 63_656 17 ?
Li2 Li1 O1 72.6(7) 64_666 17 ?
Li2 Li1 O1 63.0(7) 17 17 ?
Li2 Li1 O1 163.9(7) 20 17 ?
O1 Li1 O1 113.71(9) 64_666 17 ?
O1 Li1 O1 101.28(16) 20 17 ?
O1 Li1 O1 113.71(9) 63_656 17 ?
Li2 Li1 Li2 6.4(12) 63_656 83_545 ?
Li2 Li1 Li2 135.6(9) 64_666 83_545 ?
Li2 Li1 Li2 92.8(10) 17 83_545 ?
Li2 Li1 Li2 103.3(9) 20 83_545 ?
O1 Li1 Li2 161.0(5) 64_666 83_545 ?
O1 Li1 Li2 79.0(5) 20 83_545 ?
O1 Li1 Li2 59.8(5) 63_656 83_545 ?
O1 Li1 Li2 75.4(5) 17 83_545 ?
Li2 Li1 Li2 135.6(9) 63_656 81 ?
Li2 Li1 Li2 6.4(12) 64_666 81 ?
Li2 Li1 Li2 103.3(9) 17 81 ?
Li2 Li1 Li2 92.8(10) 20 81 ?
O1 Li1 Li2 59.8(5) 64_666 81 ?
O1 Li1 Li2 75.4(5) 20 81 ?
O1 Li1 Li2 161.0(5) 63_656 81 ?
O1 Li1 Li2 79.0(5) 17 81 ?
Li2 Li1 Li2 139.1(10) 83_545 81 ?
Li2 Li1 Li2 103.3(9) 63_656 7_554 ?
Li2 Li1 Li2 92.8(10) 64_666 7_554 ?
Li2 Li1 Li2 6.4(12) 17 7_554 ?
Li2 Li1 Li2 135.6(9) 20 7_554 ?
O1 Li1 Li2 75.4(5) 64_666 7_554 ?
O1 Li1 Li2 161.0(5) 20 7_554 ?
O1 Li1 Li2 79.0(5) 63_656 7_554 ?
O1 Li1 Li2 59.8(5) 17 7_554 ?
Li2 Li1 Li2 97.0(3) 83_545 7_554 ?
Li2 Li1 Li2 97.0(3) 81 7_554 ?
Li2 Li1 Li2 92.8(10) 63_656 6_545 ?
Li2 Li1 Li2 103.3(9) 64_666 6_545 ?
Li2 Li1 Li2 135.6(9) 17 6_545 ?
Li2 Li1 Li2 6.4(12) 20 6_545 ?
O1 Li1 Li2 79.0(5) 64_666 6_545 ?
O1 Li1 Li2 59.8(5) 20 6_545 ?
O1 Li1 Li2 75.4(5) 63_656 6_545 ?
O1 Li1 Li2 161.0(5) 17 6_545 ?
Li2 Li1 Li2 97.0(3) 83_545 6_545 ?
Li2 Li1 Li2 97.0(3) 81 6_545 ?
Li2 Li1 Li2 139.1(10) 7_554 6_545 ?
Li2 Li2 Al1 158(4) 22_545 9 ?
Li2 Li2 Li1 158(4) 22_545 9 ?
Al1 Li2 Li1 0.0 9 9 ?
Li2 Li2 O1 103(3) 22_545 . ?
Al1 Li2 O1 65.1(7) 9 . ?
Li1 Li2 O1 65.1(7) 9 . ?
Li2 Li2 O1 142(4) 22_545 53_566 ?
Al1 Li2 O1 59.2(5) 9 53_566 ?
Li1 Li2 O1 59.2(5) 9 53_566 ?
O1 Li2 O1 106.1(8) . 53_566 ?
Li2 Li2 O1 59(2) 22_545 22_545 ?
Al1 Li2 O1 138.4(11) 9 22_545 ?
Li1 Li2 O1 138.4(11) 9 22_545 ?
O1 Li2 O1 99.7(8) . 22_545 ?
O1 Li2 O1 92.3(8) 53_566 22_545 ?
Li2 Li2 O1 113.2(16) 22_545 79_556 ?
Al1 Li2 O1 56.0(6) 9 79_556 ?
Li1 Li2 O1 56.0(6) 9 79_556 ?
O1 Li2 O1 101.2(9) . 79_556 ?
O1 Li2 O1 84.9(6) 53_566 79_556 ?
O1 Li2 O1 158.9(10) 22_545 79_556 ?
Li2 Li2 Al1 15(3) 22_545 5_545 ?
Al1 Li2 Al1 171.2(12) 9 5_545 ?
Li1 Li2 Al1 171.2(12) 9 5_545 ?
O1 Li2 Al1 115.2(8) . 5_545 ?
O1 Li2 Al1 127.0(10) 53_566 5_545 ?
O1 Li2 Al1 50.4(4) 22_545 5_545 ?
O1 Li2 Al1 116.2(8) 79_556 5_545 ?
Li2 Li2 Li1 15(3) 22_545 5_545 ?
Al1 Li2 Li1 171.2 9 5_545 ?
Li1 Li2 Li1 171.2(12) 9 5_545 ?
O1 Li2 Li1 115.2(8) . 5_545 ?
O1 Li2 Li1 127.0(10) 53_566 5_545 ?
O1 Li2 Li1 50.4(4) 22_545 5_545 ?
O1 Li2 Li1 116.2(8) 79_556 5_545 ?
Al1 Li2 Li1 0.0 5_545 5_545 ?
Li2 Li2 Li2 149.7(7) 22_545 53_566 ?
Al1 Li2 Li2 40.4(3) 9 53_566 ?
Li1 Li2 Li2 40.4(3) 9 53_566 ?
O1 Li2 Li2 59.5(8) . 53_566 ?
O1 Li2 Li2 46.7(5) 53_566 53_566 ?
O1 Li2 Li2 98.0(10) 22_545 53_566 ?
O1 Li2 Li2 95.2(6) 79_556 53_566 ?
Al1 Li2 Li2 148.1(11) 5_545 53_566 ?
Li1 Li2 Li2 148.1(11) 5_545 53_566 ?
Li2 Li2 Li2 118(4) 22_545 79_556 ?
Al1 Li2 Li2 40.4(2) 9 79_556 ?
Li1 Li2 Li2 40.4(2) 9 79_556 ?
O1 Li2 Li2 55.4(9) . 79_556 ?
O1 Li2 Li2 98.6(5) 53_566 79_556 ?
O1 Li2 Li2 154.7(13) 22_545 79_556 ?
O1 Li2 Li2 45.8(5) 79_556 79_556 ?
Al1 Li2 Li2 131.7(11) 5_545 79_556 ?
Li1 Li2 Li2 131.7(11) 5_545 79_556 ?
Li2 Li2 Li2 74.0(8) 53_566 79_556 ?
Li2 Li2 O1 52.4(14) 22_545 84 ?
Al1 Li2 O1 130.0(10) 9 84 ?
Li1 Li2 O1 130.0(10) 9 84 ?
O1 Li2 O1 148.4(9) . 84 ?
O1 Li2 O1 105.1(8) 53_566 84 ?
O1 Li2 O1 83.9(6) 22_545 84 ?
O1 Li2 O1 76.7(6) 79_556 84 ?
Al1 Li2 O1 45.0(3) 5_545 84 ?
Li1 Li2 O1 45.0(3) 5_545 84 ?
Li2 Li2 O1 151.6(11) 53_566 84 ?
Li2 Li2 O1 114.6(10) 79_556 84 ?
 
_refine_diff_density_max    0.432
_refine_diff_density_min   -0.466
_refine_diff_density_rms    0.111

_shelx_res_file
;

    shelx.res created by SHELXL-2014/7


TITL   LLZO Al0.2 xx7
CELL   0.71073     12.9652   12.9652   12.9652   90.0000   90.0000   90.0000
ZERR         16     0.0004    0.0000    0.0000    0.0000    0.0000    0.0000
LATT    2
SYMM   +X,-Y,1/2-Z
SYMM   1/2-X,-Y,1/2+Z
SYMM   1/2-X,+Y,-Z
SYMM   1/4-Y,3/4+X,1/4+Z
SYMM   1/4+Y,3/4+X,3/4-Z
SYMM   1/4+Y,1/4-X,3/4+Z
SYMM   1/4-Y,1/4-X,1/4-Z
SYMM   +Y,+Z,+X
SYMM   1/2-Y,-Z,1/2+X
SYMM   +Y,-Z,1/2-X
SYMM   1/2-Y,+Z,-X
SYMM   1/4-Z,3/4+Y,1/4+X
SYMM   1/4-Z,1/4-Y,1/4-X
SYMM   1/4+Z,1/4-Y,3/4+X
SYMM   1/4+Z,3/4+Y,3/4-X
SYMM   +Z,+X,+Y
SYMM   -Z,1/2+X,1/2-Y
SYMM   -Z,1/2-X,+Y
SYMM   +Z,-X,1/2-Y
SYMM   1/4-X,1/4-Z,1/4-Y
SYMM   1/4-X,3/4+Z,1/4+Y
SYMM   3/4+X,3/4-Z,1/4+Y
SYMM   1/4+X,3/4+Z,3/4-Y
SFAC  LI   O    AL   ZR   LA  H
UNIT  56 96 2 16 24  1
FMAP   2
PLAN   20
BOND
ACTA
L.S.  100
EXYZ LI1 AL1
EADP LI1 AL1
rem SUMP 1.0 0.001 1.0 2 1.0 3
WGHT    0.004900   25.475388
EXTI    0.000336
FVAR       0.09257
O1    2    0.100028    0.195621    0.281616    11.00000    0.00904    0.01192 =
         0.01432    0.00053   -0.00025   -0.00227
REM ### 8-fach koordinierter Platz 24d/ 0.25 ####
LA1   5    0.125000    0.000000    0.250000     0.24634    0.01157    0.00868 =
         0.00868    0.00179    0.00000    0.00000
REM
REM  ### 6-Fach koordinierter PLATZ 16a/ 0.16 ###
ZR1   4    0.000000    0.000000    0.000000    10.16667    0.00714    0.00714 =
         0.00714    0.00036    0.00036    0.00036
REM
REM  ### 4-Fach koordinierter PLATZ 24d/ 0.25 ###
LI1   1    0.375000    0.000000    0.250000     0.17141    0.02191
AL1   3    0.375000    0.000000    0.250000    10.01800    0.02191
REM
REM ZWISCHENGITTER (96h)
LI2   1    0.099060    0.187659    0.425968     0.32162    0.01120
HKLF    4

REM    LLZO Al0.2 xx7
REM R1 =  0.0189 for     266 Fo > 4sig(Fo)  and  0.0195 for all     268 data
REM     24 parameters refined using      0 restraints

END

WGHT      0.0052     25.0421

REM Highest difference peak  0.432,  deepest hole -0.466,  1-sigma level  0.111
Q1    1   0.0620  0.1986  0.4070  11.00000  0.05    0.43
Q2    1   0.3476  0.0309  0.2969  11.00000  0.05    0.38
Q3    1   0.1250  0.1250  0.1250  10.16667  0.05    0.36
Q4    1   0.0845  0.0399 -0.0600  11.00000  0.05    0.36
Q5    1   0.1408  0.0351  0.2028  11.00000  0.05    0.35
Q6    1   0.1548 -0.0255  0.2852  11.00000  0.05    0.32
Q7    1   0.1250  0.1237  0.3737  10.50000  0.05    0.32
Q8    1   0.0612  0.2252  0.2081  11.00000  0.05    0.31
Q9    1   0.1020  0.1904  0.3450  11.00000  0.05    0.30
Q10   1   0.1489  0.1950  0.3164  11.00000  0.05    0.30
Q11   1   0.1133  0.1194  0.2553  11.00000  0.05    0.29
Q12   1   0.1915 -0.0254  0.1833  11.00000  0.05    0.29
Q13   1   0.0564  0.1686  0.3273  11.00000  0.05    0.28
Q14   1   0.1453  0.1765  0.3180  11.00000  0.05    0.27
Q15   1   0.1857  0.1619  0.3031  11.00000  0.05    0.27
Q16   1   0.1044  0.2476  0.4704  11.00000  0.05    0.27
Q17   1   0.1250  0.2332  0.4832  10.50000  0.05    0.26
Q18   1   0.1259  0.2496  0.2447  11.00000  0.05    0.26
Q19   1   0.1335  0.1415  0.2808  11.00000  0.05    0.25
Q20   1   0.1438  0.2765  0.4425  11.00000  0.05    0.24
;
_shelx_res_checksum   74776

_shelx_hkl_file
;
  -1  -1   0 0.52516 0.37566   3
  -1   0   1 4.07677 0.88429   2
   0  -1   1 1.00317 0.43705   1
   0  -1   1 0.58863 0.38849   2
   0   1  -1 0.88626 0.37683   4
   0   1   1 0.26475 0.31833   1
   1  -1   0 3.68622 0.71665   2
   1  -1   0 2.67307 0.66660   3
   1   0  -1 0.77203 0.34864   4
   1   0   1 2.02558 0.58462   1
   1   0   1 1.95935 0.50434   4
   1   1   0 1.04034 0.36730   4
  -2   0   0 0.53749 1.18278   2
   0  -2   0 1.63410 1.31329   3
   0   0  -2 -1.2250 1.02017   4
   0   0   2 2.92677 1.58927   1
   0   2   0 0.09479 1.26741   1
   2   0   0 1.04720 1.43916   3
   2   0   0 -1.6324 0.94729   4
  -2  -1  -1 1054.00 18.3766   3
   2   1  -1 1060.44 17.3844   4
   1   1  -2 1083.91 17.5716   4
  -2   1   1 987.135 18.2155   2
  -1  -2  -1 1030.19 15.9957   2
   2  -1   1 1053.97 17.7627   1
  -1  -1  -2 1050.74 17.8729   3
   2  -1   1 1040.78 16.6541   4
   2   1  -1 1063.73 17.8530   3
  -1   1   2 1042.63 17.3243   1
  -1   1   2 1021.69 17.9454   2
   1  -2   1 1039.03 16.6571   3
   2  -1   1 1025.33 17.6284   3
  -1   2   1 1053.81 17.7263   1
   1   2  -1 1018.93 16.8255   4
   1  -2   1 1073.09 18.4830   1
   1  -2   1 1035.04 18.1186   2
   1  -1   2 1006.33 18.5289   1
   1   2  -1 1010.92 17.4785   1
  -1   2  -1 1074.92 18.4562   1
  -2  -1   1 1035.88 17.5888   3
   1   1   2 1043.47 18.7011   1
   1   1   2 1064.70 16.9810   4
   1  -1  -2 1024.76 17.9252   3
   1  -2  -1 1071.06 18.1162   2
   1   2   1 1046.56 18.3726   1
   1   2   1 1060.27 16.0591   4
   2  -1  -1 1068.01 18.7342   3
  -1  -2   1 1006.04 17.8580   2
  -1  -2   1 1007.44 16.4239   3
  -1   2  -1 1035.81 15.8799   4
  -1  -1   2 1063.42 17.1912   1
  -1  -1   2 1070.08 18.6410   2
  -2  -1   1 1065.93 18.4200   2
   2   1   1 933.235 17.4527   1
  -2  -2   0 148.387 4.70650   2
  -2  -2   0 158.282 5.50062   3
  -2   0  -2 156.870 5.16142   3
  -2   2   0 157.437 5.11031   1
   0  -2  -2 159.599 5.64618   3
   0  -2  -2 158.603 3.98393   4
   0  -2   2 147.814 5.51900   1
   0   2  -2 148.282 4.68969   4
   0   2   2 152.884 5.67890   1
   2  -2   0 167.134 5.71405   2
   2  -2   0 147.255 5.43322   3
   2  -2   0 150.559 3.73736   4
   2   0  -2 164.133 5.39894   3
   2   0  -2 155.950 5.00054   4
   2   0   2 160.392 5.79751   1
   2   2   0 168.306 4.86066   4
  -2  -2  -2 -0.8350 1.27295   3
   2   2  -2 -1.7986 0.93678   4
   2  -2   2 -1.7814 0.89598   3
   2   2  -2 3.78881 1.47338   1
  -2   2   2 2.38450 1.43001   1
  -2   2   2 -1.6088 1.20677   2
   2  -2   2 -0.5018 1.19514   2
   2  -2   2 -1.4793 1.25283   1
   2  -2  -2 -2.1565 0.69841   4
   2  -2  -2 0.00309 1.42444   3
  -2  -2   2 -2.3656 1.04580   2
   2   2   2 0.95641 1.50800   1
   2   2   2 1.76048 1.24545   4
   1   0  -3 4.06322 1.04425   3
   1   0  -3 0.93345 0.82337   4
   1   0   3 -0.0588 0.77908   1
   1   0   3 2.70545 0.81730   2
   3  -1   0 2.33586 0.80969   1
   3  -1   0 0.11260 0.79666   3
   3  -1   0 1.01134 0.63211   4
   3   1   0 4.30137 0.97093   1
   3   1   0 0.66900 0.71050   4
   0  -3  -1 5.60649 1.47892   3
   0  -3   1 0.05793 0.76489   2
   0  -3   1 0.72190 0.61246   3
   0   3  -1 3.35862 1.24427   1
  -1   0  -3 1.09718 0.79256   4
  -1   0   3 1.51674 0.85742   1
  -1   0   3 2.28290 1.12279   2
   0  -3  -1 1.07006 0.73143   2
  -1   0  -3 0.72336 0.67334   3
  -3   1   0 1.42433 0.86505   2
  -3  -1   0 6.77564 1.72995   3
  -3  -1   0 -0.5893 0.46206   2
   3   0   1 3.70286 1.11367   4
   3   0   1 0.98233 0.86327   3
   1   3   0 5.21614 1.51164   1
   1   3   0 7.26143 1.14911   4
   3   0  -1 0.59080 0.82101   3
   3   0  -1 0.36251 0.59189   4
   0   1  -3 3.49122 1.14258   4
   0   1   3 1.52242 1.09812   1
   0   1   3 0.38883 0.65175   2
   1  -3   0 0.62916 0.83516   2
  -3   0  -1 3.40015 0.96124   2
  -3   0  -1 0.53470 0.71002   3
  -3   0   1 0.80182 0.85235   2
  -1  -3   0 1.08789 0.83390   2
  -1  -3   0 1.96479 0.96174   3
  -1   3   0 0.99830 0.80757   1
   0  -1  -3 2.79514 1.13407   3
   0  -1   3 3.96525 1.37668   1
   0  -1   3 0.35822 0.70870   2
   2   1  -3 951.802 18.0472   4
  -1   3   2 937.508 18.6098   1
  -1   3   2 932.967 18.0713   2
  -3   2   1 898.997 18.7251   2
  -2  -1  -3 925.066 18.0661   3
   3  -2   1 926.968 17.8378   1
   3  -2   1 948.124 18.2137   2
   3  -2   1 946.176 18.4024   3
   3   2  -1 904.881 15.8894   1
   3   2  -1 915.259 17.4096   4
  -1  -3  -2 931.949 15.8949   2
   1   3  -2 925.085 18.3573   1
  -3   2   1 937.055 16.2280   1
  -2   1   3 947.201 16.9182   1
   2  -1   3 909.697 19.3825   1
   2  -1   3 937.738 16.6748   2
   2   1  -3 927.185 16.6283   3
  -3  -2  -1 892.087 15.2737   2
  -3  -2  -1 937.324 19.0843   3
   1  -3   2 910.431 18.9975   1
   1  -3   2 938.428 18.8213   2
   1  -3   2 920.963 15.5744   3
  -2   1   3 929.992 19.0474   2
   1   3  -2 930.453 17.0850   4
   1   3   2 924.449 19.1998   1
   3   2   1 953.236 17.2580   4
   2   1   3 940.303 17.4404   4
   1  -3  -2 959.209 18.2160   2
   2  -1  -3 911.056 16.8144   4
   1   3   2 913.736 15.5029   4
  -1  -3   2 924.244 18.7890   2
  -1  -3   2 898.010 15.3604   3
  -1   3  -2 934.048 16.2300   4
   2   1   3 914.149 19.4548   1
  -2  -1   3 919.861 16.5145   1
  -2  -1   3 945.892 19.6080   2
  -2   1  -3 912.965 16.2539   3
  -2   1  -3 936.047 17.3904   4
   2  -1  -3 934.423 18.3588   3
   3  -2  -1 937.149 19.4853   3
   3  -2  -1 936.439 15.5491   4
  -3  -2   1 909.705 18.2124   3
   1  -3  -2 955.769 19.1824   3
   1  -3  -2 929.464 14.6399   4
  -3  -2   1 948.842 18.4466   2
  -1  -2  -3 940.229 18.5855   3
   3   1  -2 965.025 18.4323   3
   3   1  -2 968.947 18.0867   4
  -2   3   1 963.090 18.0707   1
   3  -1   2 910.664 18.5723   1
   3  -1   2 926.144 16.6968   2
   3  -1   2 929.614 18.0056   3
   3  -1   2 915.087 17.1779   4
   2   3  -1 791.413 17.1984   1
   2   3  -1 940.684 17.0274   4
   1  -2   3 958.052 18.3450   2
   1   2  -3 958.930 17.8347   4
  -2  -3  -1 944.480 16.1460   2
  -3   1   2 921.737 14.8339   1
  -3   1   2 956.133 19.4124   2
   2  -3   1 913.945 18.6634   2
  -3  -1  -2 938.946 18.8663   3
  -1   2   3 949.606 18.5728   1
   1  -2   3 915.273 19.2744   1
  -1  -2  -3 936.460 16.5561   4
  -2  -3  -1 947.995 19.0250   3
  -1   2   3 949.642 18.2159   2
   2   3   1 960.479 16.4236   4
   1   2   3 939.635 16.7122   4
   2  -3  -1 916.625 18.7715   2
  -1  -2   3 924.486 18.0731   1
  -1  -2   3 955.495 19.1976   2
   2   3   1 941.533 18.8007   1
   1  -2  -3 954.214 15.9549   4
   3  -1  -2 935.325 19.2651   3
   1  -2  -3 923.301 18.6740   3
  -3  -1   2 961.226 19.8029   2
  -3   1  -2 908.772 17.7737   3
   3  -1  -2 922.089 16.6710   4
   2  -3  -1 896.516 18.8617   3
   1   2   3 955.861 19.7699   1
   1   2   3 898.383 15.1386   2
  -2  -3   1 930.636 18.2041   2
  -2   3  -1 910.576 15.2235   4
   3   1   2 948.041 18.8063   1
   3   1   2 938.508 17.4899   4
  -1   2  -3 945.331 17.3237   4
  -3  -3   0 0.55466 0.75286   2
  -3  -3   0 0.96711 0.99903   3
  -3   0  -3 8.41857 1.90411   3
  -3   0   3 0.84714 0.59182   1
  -3   0   3 1.24011 1.20824   2
  -3   3   0 1.37145 0.94435   1
   0  -3  -3 3.59262 1.50369   3
   0  -3  -3 4.18920 0.98238   4
   0  -3   3 1.68763 1.13919   1
   0   3  -3 1.25354 0.82679   4
   0   3   3 1.01995 0.81480   2
   3  -3   0 0.78991 0.81587   2
   3  -3   0 4.68539 1.50625   3
   3  -3   0 6.22248 1.06455   4
   3   0  -3 0.30275 0.73633   4
   3   0   3 3.52749 1.46836   1
   3   0   3 2.82791 0.77868   2
   3   0   3 0.42623 0.80926   4
   3   3   0 1.77544 0.89664   4
  -3  -3  -2 267.495 6.12270   2
  -3  -3  -2 283.754 9.93945   3
   3  -2   3 270.899 8.37789   4
  -3  -2  -3 273.368 9.65690   3
   3   2  -3 284.814 8.51048   3
   3   2  -3 282.893 9.08111   4
   3   3  -2 282.581 8.26788   1
   3   3  -2 281.694 8.84869   4
  -3   2   3 279.190 7.89459   1
  -3   2   3 294.398 10.2415   2
   3  -2   3 265.370 8.04801   3
  -3   3   2 271.483 8.28418   1
  -2  -3  -3 271.157 6.05335   2
  -2  -3  -3 274.874 9.77553   3
   3  -2   3 276.356 9.88568   1
  -2   3   3 271.860 8.92834   1
  -2   3   3 284.487 9.65330   2
   3   2  -3 268.229 7.50453   1
   3  -3   2 271.499 8.51659   3
   2  -3   3 267.202 9.16521   2
   2  -3   3 276.834 7.09359   3
   2   3  -3 279.579 8.87601   4
   3  -3   2 264.792 9.43297   1
   3  -3   2 281.459 9.33774   2
   3  -3  -2 273.653 6.46026   4
   2   3   3 264.339 5.99981   2
   3  -3  -2 298.300 10.4161   3
   2  -3  -3 271.963 6.75410   4
   2   3   3 280.867 7.96522   4
   3  -2  -3 273.895 9.86156   3
   3  -2  -3 269.528 7.53863   4
  -2  -3   3 283.248 7.22330   3
  -2   3  -3 284.926 8.20133   4
  -3   3  -2 272.251 7.64968   4
  -3  -3   2 270.208 9.54249   2
   2  -3  -3 255.234 9.55384   3
  -3  -2   3 268.271 9.94051   2
  -3  -2   3 268.371 8.16771   3
  -3   2  -3 267.135 7.98252   3
  -3   2  -3 272.830 8.31630   4
   3   3   2 266.498 9.58760   1
   3   3   2 285.766 8.29147   4
  -4   0   0 5391.43 74.8364   2
   0  -4   0 5446.58 75.8258   2
   0  -4   0 5336.50 75.3246   3
   0   0  -4 5234.66 72.4976   3
   0   0   4 5339.61 76.7022   1
   0   4   0 5374.56 76.6860   1
   0   4   0 5028.20 69.8238   4
   4   0   0 5050.57 71.2206   1
   4   0   0 5333.53 77.0417   3
   4   0   0 5320.79 74.0865   4
   4   2   0 3853.43 56.7163   4
   2   0   4 3789.47 53.9145   2
   4  -2   0 3957.29 59.7847   3
   4   2   0 3928.90 55.3568   1
   2   0  -4 3957.84 57.0494   4
   2   0   4 3866.50 60.2988   1
   0   4  -2 3733.27 54.6994   4
   0   4   2 3823.98 52.0040   4
  -4  -2   0 3868.89 56.6008   2
  -4  -2   0 3850.65 59.3061   3
  -4   2   0 3873.32 55.3955   1
  -4   2   0 3814.48 58.3484   2
  -2   0  -4 3883.15 56.0545   3
  -2   0  -4 3923.64 57.0990   4
  -2   0   4 3860.40 56.4824   1
  -2   0   4 3822.62 60.1537   2
   0  -4  -2 3963.25 56.8420   2
   0  -4  -2 3870.41 59.3925   3
   0  -4   2 3880.82 59.0359   2
   0  -4   2 3717.79 54.2137   3
   0   4  -2 3889.17 59.4547   1
   2   0  -4 3947.34 56.7854   3
   1   4  -1 1.23092 1.00938   1
  -4   1   1 2.39830 1.45293   2
   1   1  -4 2.79606 1.28392   4
  -1  -4  -1 8.75586 2.11590   3
   4  -1   1 2.17072 1.25564   3
   4  -1   1 7.13075 1.57364   4
   4   1  -1 2.08030 1.29044   3
   4   1  -1 3.75142 1.29701   4
  -1  -1  -4 1.35609 0.96879   3
  -1  -1  -4 1.29734 0.86466   4
  -1  -4  -1 0.70854 0.77528   2
   1   4  -1 4.78310 1.19768   4
  -4  -1  -1 2.55786 1.02922   2
  -1   1   4 5.09141 1.62554   1
  -1   1   4 3.11976 1.31884   2
   1   1  -4 2.66418 0.86785   3
   4  -1   1 0.60485 0.80192   1
  -1   4   1 3.25230 1.41401   1
   1  -4   1 1.99303 1.01487   3
  -4  -1  -1 6.30208 1.96554   3
   1  -4   1 2.42939 1.27097   2
  -4   1   1 0.78002 0.52237   1
   1  -4  -1 8.41243 1.94627   2
   1   1   4 2.33748 0.96458   2
   1  -1  -4 0.79988 0.81200   3
  -1   4  -1 1.94324 1.25240   1
   4   1   1 2.39840 1.11138   1
   4   1   1 1.89115 1.01548   4
  -1  -1   4 1.62475 1.05296   1
  -1  -1   4 0.88852 0.99388   2
  -1   1  -4 0.99181 0.66061   3
   1   4   1 1.60864 1.17806   1
   1   4   1 1.04323 0.56641   4
   4  -1  -1 0.26501 0.97098   3
   4  -1  -1 5.28716 1.28963   4
  -1   4  -1 2.44039 0.72543   4
  -1  -4   1 3.19755 1.13914   3
  -1   1  -4 1.98716 1.10347   4
   1  -4  -1 1.42530 1.14687   3
  -4  -1   1 4.54154 1.56433   2
  -4  -1   1 0.80647 1.00598   3
  -4   1  -1 1.71058 0.98135   2
   1  -1  -4 0.43735 0.78029   4
  -1  -4   1 -0.1178 0.83523   2
   1   1   4 2.78709 1.39465   1
   4  -3   1 84.4912 5.19172   2
   4  -3   1 90.7782 5.00809   1
  -4   3   1 91.3888 4.43498   1
   1  -4   3 85.0405 3.44833   3
   1   4  -3 90.6932 5.40793   1
   1   4  -3 88.9251 4.65449   4
   3  -1   4 99.3646 6.19960   1
   3  -1   4 91.7070 4.27853   2
   3   1  -4 88.6909 4.70545   3
   3   1  -4 88.0837 5.01859   4
  -1  -4  -3 82.4370 5.42366   3
   4   3  -1 90.4830 4.42013   1
  -4   3   1 90.4654 5.57625   2
  -1   4   3 89.6557 5.07780   2
  -3   1   4 90.9663 4.38641   1
   1  -4   3 93.4068 5.81649   1
   1  -4   3 87.2092 5.44920   2
  -3  -1  -4 115.414 5.83637   3
  -4  -3  -1 93.1304 4.10876   2
  -4  -3  -1 106.278 6.15417   3
   4  -3   1 95.4945 5.50910   3
   4  -3   1 83.7810 3.95225   4
  -1  -4  -3 85.7713 4.09769   2
  -3   1   4 85.3033 5.66618   2
   3  -1  -4 87.9307 4.65604   4
   3   1   4 82.4863 5.64507   1
   3   1   4 90.1902 4.92940   4
   4  -3  -1 89.4268 5.76964   3
   4  -3  -1 91.5982 3.77056   4
   1  -4  -3 90.3738 3.12499   4
  -3  -1   4 93.6658 6.03490   2
  -3   1  -4 86.7664 4.49598   3
   1   4   3 93.4030 5.93162   1
   1   4   3 90.6298 3.86160   4
   3  -1  -4 91.2580 5.35440   3
  -1   4  -3 90.2786 5.76130   1
  -1   4  -3 96.8613 4.52243   4
  -3  -1   4 91.2523 4.19443   1
  -4   3  -1 92.5462 5.04558   1
  -3   1  -4 97.1724 5.05036   4
  -1  -4   3 94.2394 5.72774   2
  -1  -4   3 92.2607 3.53521   3
  -4  -3   1 99.7933 5.37598   2
  -4  -3   1 93.1224 5.42475   3
   2  -4   0 3914.31 58.2678   3
   2   4   0 3734.17 58.0597   1
   0   2   4 3894.97 59.4077   1
   0   2   4 3896.06 56.0463   2
   2  -4   0 3796.73 58.5909   2
  -4   0  -2 3854.43 54.2083   2
  -2  -4   0 3893.29 56.8852   2
  -2  -4   0 3912.77 57.9906   3
  -2   4   0 3873.40 58.5312   1
   0  -2   4 3903.69 58.2820   2
  -4   0  -2 3834.98 58.4851   3
  -4   0   2 3873.04 59.5162   2
   0   2  -4 3894.36 56.9149   4
   2   4   0 3894.85 54.6928   4
   4   0  -2 3764.58 58.8272   3
   0  -2  -4 3918.88 58.1980   3
   0  -2  -4 3570.19 54.8083   4
   0  -2   4 3924.86 59.1382   1
   4   0   2 3963.45 56.8483   4
   4   0  -2 3839.29 56.3748   4
   4  -2   2 3545.11 54.4612   3
  -2  -2  -4 3585.30 52.5583   4
  -4  -2  -2 3439.98 48.4370   2
  -4   2   2 3530.60 49.9480   1
  -4   2   2 3601.45 56.3031   2
  -2  -4  -2 3493.86 50.5929   2
  -2  -4  -2 3574.60 56.1166   3
   2   4  -2 3597.27 54.4938   1
   2   2  -4 3493.07 50.1549   3
   4  -2   2 3576.87 52.3236   4
   4   2  -2 3435.30 49.3381   1
   4   2  -2 3587.83 53.8448   4
   2  -4   2 3510.05 52.0040   3
  -4  -2  -2 3575.52 56.0110   3
  -2   2   4 3636.80 53.9501   1
  -2   2   4 3579.51 55.4470   2
   4  -2   2 3329.93 52.9428   2
   2   2  -4 3665.22 54.3228   4
  -2   4   2 3582.65 54.6605   1
  -2   4   2 3545.39 54.9725   2
  -2  -2  -4 3544.93 54.8807   3
   4  -2   2 3456.42 54.2670   1
   2  -4   2 3577.47 55.5620   2
   2  -2   4 3503.22 56.5272   1
   2   4  -2 3565.14 52.6595   4
  -4  -2   2 3608.26 56.0847   2
   4   2   2 3481.94 54.5606   1
  -2   4  -2 3655.76 56.3979   1
  -2   4  -2 3553.60 50.5231   4
   2   2   4 3571.58 57.0585   1
   2   2   4 3412.79 48.8798   2
   2   2   4 3513.24 52.6487   4
  -2  -4   2 3466.80 55.0370   2
   2  -4  -2 3497.27 56.1077   3
  -4  -2   2 3498.38 54.3142   3
   2   4   2 3614.02 50.8756   4
   4  -2  -2 3598.44 56.8155   3
   4  -2  -2 3526.04 51.0714   4
   4   2   2 3537.92 53.1955   4
   2  -2  -4 3530.54 55.0531   3
   2  -4  -2 3652.25 55.5004   2
  -2  -2   4 3549.23 53.2392   1
  -2  -2   4 3609.07 56.5608   2
  -2   2  -4 3526.12 49.6771   3
  -2   2  -4 3622.42 53.3018   4
  -2  -4   2 3534.25 51.8579   3
   2   4   2 3522.56 56.0251   1
   4  -1   3 94.1461 5.62459   1
   4  -1   3 99.3729 4.43110   2
   4   1  -3 88.2702 3.01873   1
   4   1  -3 84.8022 5.08336   3
   4   1  -3 88.7996 5.02120   4
  -1  -3  -4 97.5698 5.68198   3
  -3  -4  -1 90.8146 4.30120   2
  -3  -4  -1 92.8954 5.65737   3
   3  -4   1 93.5273 3.70120   4
   3   4  -1 91.9304 4.63628   4
  -4   1   3 92.2126 3.36628   1
  -4   1   3 102.046 6.20605   2
   1  -3   4 89.4267 5.35405   2
   1   3  -4 87.7567 4.81935   4
   3  -4   1 91.3009 5.49882   2
   3  -4   1 92.4857 5.23956   3
  -4  -1  -3 93.9362 5.55563   3
   1  -3   4 87.0210 5.70456   1
  -1   3   4 84.2651 5.36066   1
  -1   3   4 86.5800 4.92465   2
  -3   4   1 86.6131 4.90934   1
   4  -1  -3 87.8054 4.63337   4
   3   4   1 93.6791 4.43319   4
  -3  -4   1 92.2436 5.07345   3
  -3   4  -1 94.2154 5.47931   1
  -3   4  -1 90.4491 3.60258   4
  -3  -4   1 89.4054 5.11768   2
   4   1   3 93.7054 5.64528   1
   4  -1  -3 89.1535 5.56868   3
  -1  -3   4 97.8496 5.56793   1
  -1  -3   4 89.7276 5.61968   2
  -1   3  -4 87.5698 4.73887   4
  -4   1  -3 86.9789 5.00882   3
   3   4   1 94.0319 5.49834   1
   1  -3  -4 93.9418 5.61938   3
   1  -3  -4 94.4680 4.03753   4
  -4  -1   3 94.9651 6.19154   2
   3  -4  -1 91.2605 5.68403   3
   3  -4  -1 85.7703 2.78185   4
   1   3   4 92.7670 5.97412   1
   1   3   4 92.4786 4.04422   2
   3  -4  -1 94.2194 5.65892   2
  -4  -3  -3 7.27440 2.40955   3
   3   4  -3 0.27687 0.86006   4
   3  -3   4 4.35991 1.93220   1
   3  -3   4 3.03845 1.44549   2
  -4   3   3 7.43835 1.82722   1
  -4   3   3 0.83522 1.15035   2
  -3  -4  -3 0.68497 1.07834   3
   4  -3   3 0.54201 0.80436   3
   4  -3   3 5.38895 1.57189   4
  -3  -3  -4 0.62728 1.04854   3
   4   3  -3 0.69580 1.00293   4
   3   3  -4 0.75973 0.87181   4
   3  -4   3 2.19778 1.24716   2
   3  -4   3 2.59913 1.07349   3
   4  -3   3 0.09197 0.92148   1
  -3   3   4 1.76208 1.11825   1
  -3   3   4 0.83037 1.08536   2
   3   4  -3 0.85021 0.70652   1
  -3   4   3 0.18801 0.79771   1
  -3   4   3 0.78853 0.93858   2
   3   3  -4 0.81444 0.91267   1
   4  -3   3 0.80650 0.94764   2
   3  -4   3 1.47205 1.21240   1
   3  -3   4 1.58247 0.90400   3
   4   3  -3 2.78684 1.12781   1
   3  -4  -3 0.26591 1.02999   3
   3  -3  -4 0.79049 0.77786   4
  -4  -3   3 2.52559 1.25955   3
  -4   3  -3 3.04296 1.23586   4
  -3   4  -3 0.64810 0.66973   4
  -3   3  -4 2.60274 0.99664   3
  -3  -3   4 1.63208 1.21418   2
   3   3   4 0.75193 1.27902   1
   3  -3  -4 0.78038 1.11523   3
  -3  -3   4 1.19532 0.87462   3
  -4  -3   3 -0.2752 0.77343   2
   3   4   3 2.07562 1.52794   1
   3   4   3 3.64605 1.22756   4
   4  -3  -3 0.38875 0.99920   3
   4  -3  -3 1.83838 0.91497   4
  -3   3  -4 3.37654 1.41186   4
   3  -4  -3 1.57748 0.71737   4
  -3  -4   3 0.00567 0.83539   2
  -3  -4   3 1.01545 0.85649   3
   3   3   4 1.01174 0.80109   4
  -3  -3   4 0.10128 0.72024   1
   4   3   3 0.58270 1.16571   1
   4   3   3 2.47024 1.13521   4
  -4  -4   0 -5.4733 1.53428   2
  -4  -4   0 -6.4826 1.75051   3
  -4   0  -4 -4.2849 1.87417   3
  -4   0   4 -6.4240 1.92395   2
  -4   4   0 -3.9166 1.84080   1
   0  -4  -4 -2.6406 2.32339   3
   0  -4   4 -1.3210 2.44860   1
   0  -4   4 -7.6813 1.55826   2
   0   4   4 -1.2985 2.38942   1
   4  -4   0 -3.9108 2.05232   2
   4  -4   0 -0.6856 2.57039   3
   4  -4   0 -5.7756 1.10826   4
   4   0  -4 7.86669 3.17398   3
   4   0  -4 -1.7947 1.97875   4
   4   0   4 -5.9563 1.72154   1
   4   0   4 -4.2857 1.25998   2
   4   0   4 -4.2495 1.79247   4
   4   4   0 -3.2311 1.84203   4
  -4  -4  -2 -0.9763 0.86418   2
  -4  -4  -2 3.05704 2.19925   3
  -4   4   2 0.88354 1.34756   1
   4  -2   4 -0.2950 1.38103   1
  -4  -2  -4 1.94925 1.96864   3
   4  -2   4 0.50880 1.41845   4
   4   2  -4 4.43852 1.60581   1
   4   2  -4 -1.0482 1.07167   3
   4   2  -4 2.15604 1.72354   4
  -4   2   4 0.12448 1.07150   1
  -4   2   4 1.12792 1.82787   2
   4   4  -2 1.78899 1.47422   1
   4   4  -2 -1.2022 1.04967   4
   2  -4   4 13.4047 3.14960   2
  -4   4   2 -2.0604 0.93468   2
  -2  -4  -4 7.65263 2.57546   3
   2   4  -4 15.9280 3.03640   4
  -2   4   4 3.59520 2.08367   1
  -2   4   4 13.6232 3.04778   2
   4  -2   4 1.65928 1.38836   2
   2  -4   4 -1.9289 1.10622   1
   4  -4   2 1.72613 1.63703   2
   2  -4  -4 5.81951 2.49959   3
  -2  -4   4 -0.7400 1.45206   2
   2   4   4 2.96721 1.23606   2
   2   4   4 -0.3054 1.03749   4
   4  -4  -2 3.27323 2.03787   3
   4  -4  -2 -1.0999 0.66175   4
  -2   4  -4 -1.5217 0.92965   4
   2  -4  -4 0.12655 0.96258   4
  -4  -4   2 0.21981 1.42833   2
   4  -2  -4 -0.1062 1.53830   3
   2   4   4 1.61665 1.87109   1
  -4  -2   4 2.47543 1.31687   1
  -4  -2   4 0.33094 1.63154   2
  -4   2  -4 0.76241 1.29654   3
  -4   2  -4 1.39089 1.51407   4
   4   2   4 -0.5719 1.37234   1
   4   2   4 4.54036 1.92068   4
   4   4   2 -1.0681 1.36126   1
   4   4   2 2.17104 1.46885   4
  -4  -4  -4 3055.33 53.0496   3
   4   4  -4 3080.67 50.4997   4
   4  -4   4 2976.17 47.3992   3
   4   4  -4 2996.46 48.2409   1
  -4   4   4 2894.96 48.4123   1
  -4   4   4 3015.65 52.9014   2
   4  -4   4 3019.22 50.7027   2
   4  -4   4 3002.40 52.8028   1
   4  -4  -4 2931.30 44.8703   4
   4  -4  -4 3018.76 53.4304   3
  -4  -4   4 2950.32 47.6510   3
  -4   4  -4 2895.47 47.5502   4
  -4  -4   4 2976.87 52.8707   2
   4   4   4 3079.60 53.8663   1
   4   4   4 3014.46 48.3714   4
   1   0  -5 1.58850 0.85586   3
   1   0  -5 0.32074 0.74756   4
   1   0   5 7.93500 2.33172   1
   1   0   5 2.39995 1.05704   2
   5  -1   0 0.81562 0.69305   1
   5  -1   0 1.40074 1.14855   3
   5  -1   0 0.92440 0.87391   4
   5   1   0 4.79350 1.20973   1
   5   1   0 3.17390 1.32870   4
   0  -5   1 1.87354 0.98318   3
   0   5  -1 2.28452 1.38871   1
   0   5  -1 3.23842 0.90758   4
   0   5   1 0.12362 0.73207   1
   0   5   1 0.39604 0.38219   4
  -1   0  -5 0.41321 0.79583   4
  -1   0   5 3.92281 1.56333   1
   0  -5  -1 2.28018 1.07698   2
   0  -5  -1 0.57236 0.97032   3
   0  -5   1 2.07702 1.28191   2
  -5  -1   0 1.29869 1.16446   3
  -5   1   0 1.46117 1.02634   2
  -1   0  -5 4.58533 1.32851   3
  -5  -1   0 2.47237 1.29050   2
   3   0   5 5.90346 1.28727   2
   5  -3   0 0.22644 0.94825   3
   5  -3   0 2.65801 0.94569   4
   5   3   0 0.99618 1.02896   1
   3   0   5 6.91714 2.32357   1
   5  -3   0 7.77668 2.27724   2
  -5  -3   0 2.36915 1.13563   2
  -5  -3   0 0.70236 1.15721   3
  -5   3   0 6.25241 1.60510   1
  -5   3   0 6.36068 1.95674   2
  -3   0  -5 4.45960 1.52136   3
  -3   0  -5 1.72487 1.06307   4
  -3   0   5 0.04969 0.69542   1
  -3   0   5 2.69288 1.71980   2
   0  -5  -3 0.72797 0.77643   2
   0  -5  -3 1.07707 1.25085   3
   0  -5  -3 1.87004 0.70221   4
   0  -5   3 1.77086 1.31092   2
   0  -5   3 0.88404 0.67103   3
   0   5  -3 1.04112 1.17082   1
   5   3   0 9.25843 2.16009   4
   0   5  -3 1.32341 0.83524   4
   0   5   3 0.85121 1.07633   1
   3   0  -5 4.45606 1.59608   3
  -1   5   0 0.30101 0.81516   1
  -5   0  -1 1.83964 1.01606   2
   0  -1  -5 1.41555 0.98082   3
  -5   0   1 0.30844 0.95736   2
  -1  -5   0 3.59093 1.39989   2
  -1  -5   0 3.69693 1.55442   3
   0  -1   5 0.30315 0.79524   2
   0   1  -5 -0.0872 0.69567   4
   0   1   5 4.05309 1.72763   1
   0   1   5 -0.6143 0.56731   2
   1  -5   0 0.07689 0.71381   2
   1  -5   0 0.31234 0.94162   3
   1   5   0 3.95822 1.57795   1
   1   5   0 -0.1653 0.44242   4
   5   0  -1 2.31970 1.35177   3
   5   0  -1 -0.1774 0.66078   4
  -5   0  -1 0.76053 1.01142   3
   0  -1  -5 0.60115 0.85019   4
   0  -1   5 4.12090 1.66551   1
   5   0   1 -0.3961 0.78820   3
   5   0   1 0.32319 0.72479   4
   5   0   1 0.93056 0.89934   1
   5   2  -1 1649.82 25.7935   1
  -5   2   1 1640.46 31.6614   2
   5  -2   1 1629.55 28.5757   1
  -1  -5  -2 1671.44 31.8659   3
  -5  -2  -1 1679.33 32.3368   3
   2   1  -5 1688.43 27.6552   3
   5   2  -1 1644.47 29.6050   4
  -2   1   5 1614.17 31.7681   2
  -1   5   2 1665.65 31.7173   1
   5  -2   1 1611.83 31.5367   3
   5  -2   1 1651.02 28.2253   4
   1  -5   2 1624.48 27.8599   3
   1   5  -2 1652.51 31.4569   1
   1   5  -2 1612.42 27.5515   4
   5  -2   1 1664.42 30.3477   2
  -2  -1  -5 1680.68 29.7484   3
  -5   2   1 1625.50 25.9198   1
  -2  -1  -5 1708.31 29.5535   4
   2  -1   5 1689.32 33.0497   1
   2  -1   5 1625.28 28.1080   2
  -1  -5  -2 1670.12 28.7136   2
   2   1  -5 1619.66 29.7396   4
  -2   1   5 1610.51 29.6375   1
  -5  -2  -1 1602.26 27.5994   2
   2  -1  -5 1638.87 29.6736   3
   5   2   1 1603.20 28.7447   1
  -1   5  -2 1709.43 32.4504   1
  -1   5  -2 1626.83 26.3173   4
  -1  -5   2 1659.86 27.9036   3
  -2   1  -5 1703.85 29.8721   4
  -1  -5   2 1667.58 31.5481   2
   5  -2  -1 1684.43 32.7642   3
  -2   1  -5 1625.58 26.8180   3
   1   5   2 1694.17 32.3672   1
   1  -5  -2 1706.35 30.7255   2
   1  -5  -2 1609.01 31.6517   3
  -2  -1   5 1612.04 31.7811   2
  -2  -1   5 1649.42 29.6533   1
   1   5   2 1616.65 25.2157   4
   2   1   5 1630.23 25.7730   2
   2  -1  -5 1593.35 28.6260   4
  -5  -2   1 1638.98 31.5759   3
   2   1   5 1619.55 32.7461   1
   5   2   1 1663.70 29.4486   4
  -5  -2   1 1646.61 30.6875   2
  -5   2  -1 1624.42 30.0571   2
   4   1  -5 3.71597 1.58939   4
  -4  -1  -5 6.15724 1.92262   4
   4   1  -5 3.97520 1.55476   3
  -5  -4  -1 5.84730 2.30541   3
  -1   5   4 6.70109 1.99986   2
  -5  -4  -1 6.13521 1.61879   2
  -4   1   5 8.19930 2.83000   2
   4  -1   5 16.8716 3.66452   1
   4  -1   5 5.69353 1.91410   4
   5  -4   1 3.17509 1.56677   2
   5  -4   1 8.82766 2.43150   3
  -5   4   1 7.01092 2.38901   2
   1  -5   4 5.25564 1.10496   3
   1   5  -4 7.42189 2.42950   1
   1   5  -4 5.55798 1.83109   4
   5  -4   1 6.04687 1.48358   4
   5   4  -1 5.79855 1.79765   1
   5   4  -1 7.19078 2.15115   4
  -4  -1  -5 18.4521 3.43673   3
   1  -5   4 4.71177 1.90222   2
  -4   1   5 5.75245 1.67648   1
  -1   5   4 5.04578 2.01317   1
  -1  -5  -4 5.26129 1.58034   2
  -1  -5  -4 5.95693 2.14806   3
  -1  -5  -4 7.02650 1.60472   4
   1  -5   4 6.12616 2.24841   1
   4  -1   5 4.95403 1.41575   2
  -5   4   1 5.70568 1.66169   1
  -1  -5   4 5.26264 1.10153   3
   1   5   4 10.2912 2.17232   2
  -5  -4   1 5.12364 1.99416   3
  -5   4  -1 7.16303 2.09419   1
   4  -1  -5 6.15218 2.16489   3
   4  -1  -5 22.4007 3.35403   4
   1  -5  -4 4.48991 1.98880   3
   1  -5  -4 11.7138 1.58841   4
   5  -4  -1 6.32182 1.38135   4
  -4  -1   5 6.79185 2.48485   2
  -4   1  -5 6.38251 1.84422   3
  -4   1  -5 5.44562 1.85108   4
  -5  -4   1 8.71294 2.22711   2
   4   1   5 5.37052 1.77010   4
  -1   5  -4 9.09708 2.59064   1
  -1   5  -4 10.2220 2.25198   4
  -1  -5   4 4.07581 1.82149   2
  -4  -1   5 11.9809 2.14598   1
   4   1   5 3.97020 1.93298   1
   4   1   5 5.25430 0.89670   2
   1   5   4 5.77956 1.53243   4
   1   5   4 4.20874 1.92335   1
   5  -4  -1 5.50662 2.14057   3
   5   4   1 6.01086 1.78713   4
   1  -2   5 1676.19 32.3535   1
  -5  -1  -2 1617.69 31.7945   3
  -1  -2  -5 1649.56 28.5800   4
  -1  -2  -5 1668.11 30.4182   3
   5  -1   2 1669.69 28.7208   2
  -2  -5  -1 1633.22 28.5681   2
  -2  -5  -1 1645.77 31.1025   3
   2   5  -1 1671.78 31.4295   1
   2   5  -1 1624.72 27.3481   4
  -5  -1  -2 1642.19 26.4175   2
   1  -2   5 1615.13 29.8557   2
  -2   5   1 1634.68 31.1244   1
   1   2  -5 1599.79 29.5448   4
  -1   2   5 1648.29 31.3139   1
   5  -1   2 1642.99 31.2831   3
   5  -1   2 1654.07 29.1100   4
   5   1  -2 1625.05 31.4625   3
   5   1  -2 1625.90 29.4480   4
   2  -5   1 1696.23 31.7622   2
  -5   1   2 1694.20 32.1868   2
   1   2  -5 1596.66 24.2018   3
   1  -2  -5 1644.07 30.3487   3
   2  -5  -1 1689.75 31.8011   3
   1  -2  -5 1610.50 27.9492   4
  -1   2  -5 1717.80 29.8751   4
  -2  -5   1 1656.01 30.6748   2
   2   5   1 1658.84 26.4663   4
  -1  -2   5 1684.10 31.0736   1
  -1  -2   5 1663.62 31.4570   2
  -5  -1   2 1667.88 32.3299   2
  -5   1  -2 1628.95 28.4163   2
  -5   1  -2 1658.17 31.1618   3
  -2   5  -1 1668.36 31.7417   1
  -2   5  -1 1632.20 24.6571   4
   1   2   5 1630.72 27.5189   2
   5  -1  -2 1661.16 28.4750   4
   1   2   5 1593.76 32.1596   1
  -1   2  -5 1588.65 23.7978   3
   2  -5  -1 1653.17 31.2231   2
   5   1   2 1389.22 28.9652   1
   5   1   2 1679.55 29.6258   4
   5  -1  -2 1700.57 32.5278   3
  -3  -2  -5 1196.53 25.2442   3
  -5   3   2 1178.75 26.4728   2
   5  -3   2 1138.94 22.2395   4
  -5   3   2 1165.25 21.1856   1
   2  -5   3 1164.19 21.5554   3
  -5  -3  -2 1149.38 19.5577   2
  -3   2   5 1155.20 23.3323   1
  -3   2   5 1143.26 26.0322   2
  -2  -5  -3 1146.95 21.0501   2
  -3  -2  -5 1183.43 23.4484   4
   5  -3   2 1146.08 24.5033   1
   5  -3   2 1179.48 24.7946   2
   5  -3   2 1187.15 25.1217   3
   3  -2   5 1172.41 23.1373   2
   5   3  -2 1177.75 20.9920   1
   2  -5   3 1202.88 26.1729   2
   2   5  -3 1204.57 23.4648   4
   2   5  -3 1165.77 25.1107   1
  -2   5   3 1163.48 25.0933   2
  -2   5   3 1153.86 25.2014   1
  -5  -3  -2 1177.01 26.5596   3
  -2  -5  -3 1192.62 26.3538   3
   3   2  -5 1152.58 21.7601   3
   3  -2   5 1216.59 27.3778   1
  -3  -2   5 1170.99 22.8858   1
  -5  -3   2 1204.14 25.2976   3
   5  -3  -2 1148.54 21.0374   4
   2  -5  -3 1188.79 25.3090   2
   2  -5  -3 1156.50 26.3105   3
  -5  -3   2 1167.58 25.6146   2
   2   5   3 1173.59 21.0444   4
   3  -2  -5 1158.20 25.1982   3
   5  -3  -2 1212.63 27.1304   3
   5   3   2 1174.47 23.5844   4
  -3   2  -5 1206.05 24.0737   4
  -3   2  -5 1151.67 21.2016   3
   3   2   5 1195.39 23.7323   4
  -3  -2   5 1190.05 27.0015   2
  -2   5  -3 1203.22 26.7619   1
   2  -5  -3 1084.01 17.4056   4
  -2  -5   3 1224.38 26.2593   2
  -2  -5   3 1136.18 21.2542   3
   3   2   5 1193.96 27.3550   1
  -2   5  -3 1178.65 21.6013   4
   2   5   3 1221.46 26.9860   1
   5   0  -3 2.57960 1.35893   4
   0   3  -5 0.62233 0.91820   4
   5   0   3 0.40527 0.87041   4
  -5   0   3 0.16956 1.16819   2
   3  -5   0 1.37601 1.13903   3
   5   0   3 1.56362 1.21786   1
  -3  -5   0 0.54662 0.99572   2
  -3  -5   0 5.01661 1.81888   3
  -3   5   0 7.92445 2.26569   1
  -5   0  -3 4.38211 1.67624   3
   0  -3   5 0.19618 1.03245   2
   3   5   0 1.79425 1.08326   1
   3   5   0 1.28082 0.85622   4
   5   0  -3 0.35201 0.96362   3
   0  -3   5 1.72903 1.29663   1
   0  -3  -5 4.31832 1.70562   3
   0  -3  -5 0.00287 0.35787   4
  -5   0  -3 1.23023 0.75418   2
   0   3   5 1.94733 1.41704   1
   3  -5   0 1.03715 1.11252   2
   5   2  -3 1163.47 25.0330   3
   5  -2   3 1166.37 23.3677   4
   3   5  -2 1205.13 24.8626   1
   5  -2   3 1136.67 24.3662   3
  -2   3   5 1151.62 24.8668   1
  -5   2   3 1176.12 19.7432   1
   5   2  -3 1205.20 24.4891   4
  -3  -5  -2 1162.96 25.9728   3
   5   2  -3 1133.98 18.8555   1
   2  -3   5 1159.78 24.4024   2
   2   3  -5 1176.85 24.4194   4
  -3   5   2 1194.85 25.7907   2
  -2  -3  -5 1184.81 25.4115   3
  -2  -3  -5 1223.49 22.8536   4
  -2   3   5 1160.58 25.1602   2
   3  -5   2 1205.41 26.0982   2
   3  -5   2 1159.99 23.5956   3
  -5  -2  -3 1189.52 26.2186   3
   3   5  -2 1154.21 22.9898   4
  -3   5   2 1136.61 24.3694   1
  -5   2   3 1192.29 26.6521   2
  -3  -5  -2 1188.27 21.5061   2
   5  -2   3 1168.91 23.2426   2
   2  -3   5 1141.97 26.5327   1
  -5  -2  -3 1122.09 17.8474   2
   5  -2   3 1184.09 25.2951   1
  -5  -2   3 1211.53 26.8312   2
  -3  -5   2 1145.28 23.1426   3
  -3   5  -2 1170.03 25.7881   1
  -3   5  -2 1178.23 20.5958   4
   3   5   2 1151.24 25.9712   1
   2   3   5 1186.89 27.2586   1
   2   3   5 1155.82 19.5822   2
   3  -5  -2 1182.49 25.8509   2
  -2  -3   5 1175.77 24.3789   1
  -2  -3   5 1203.68 26.5156   2
  -2  -3   5 1153.65 19.1650   3
  -2   3  -5 1151.96 18.6656   3
  -2   3  -5 1194.47 23.7655   4
  -5   2  -3 1168.53 24.4171   3
   3  -5  -2 1177.15 26.3762   3
  -3  -5   2 1171.32 25.3141   2
  -5  -2   3 1164.03 24.6204   3
   2  -3  -5 1158.41 25.5876   3
   2  -3  -5 1156.22 21.4862   4
   5   2   3 1157.71 25.4367   1
   3   5   2 1150.58 21.6306   4
   5  -2  -3 1175.59 26.4917   3
   4   3  -5 4.76151 1.74073   1
   4   3  -5 2.91018 1.33724   3
   4   3  -5 5.17852 1.93810   4
   5  -4   3 10.6893 2.87828   1
  -3   5   4 8.38253 2.63764   2
   3   5  -4 1.61560 1.18817   1
   4  -3   5 4.59658 2.19185   1
   3  -5   4 5.38798 1.44108   3
   5  -4   3 16.2090 3.38214   2
  -5  -4  -3 5.93183 1.12262   2
  -5  -4  -3 5.32943 2.32794   3
   5   4  -3 5.18310 1.65371   1
   5   4  -3 5.23245 1.94798   4
  -5   4   3 3.97188 1.53820   1
  -5   4   3 18.5972 4.12913   2
  -4  -3  -5 3.73523 1.70535   3
  -4   3   5 8.11629 2.09392   1
  -4   3   5 4.16125 2.05831   2
  -3  -5  -4 3.92992 1.92303   3
   3  -5   4 6.89947 2.58973   1
   3  -5   4 4.74994 2.02138   2
  -3   5   4 2.45422 1.46599   1
   5  -4   3 9.10794 2.27552   3
  -3  -5  -4 4.61126 1.19185   2
   3   5  -4 2.71781 1.54357   4
  -4  -3   5 4.26965 1.54144   1
   3  -5  -4 5.96201 2.42951   3
  -4  -3   5 12.7596 3.45812   2
   5  -4  -3 5.58755 1.41124   4
   4  -3  -5 2.24541 1.45620   3
  -4   3  -5 3.74417 1.53246   4
  -4  -3   5 5.72394 1.70942   3
   4   3   5 6.23887 2.63822   1
   4  -3  -5 5.69321 1.67881   4
   3   5   4 3.96696 1.42807   4
  -5  -4   3 3.76704 1.87353   2
  -5   4  -3 3.25728 1.41078   4
   5   4   3 4.64586 2.01553   1
   5   4   3 3.46281 1.44151   4
  -3   5  -4 3.90406 1.49929   4
  -4   3  -5 10.7186 2.21568   3
   3   5   4 6.53801 2.81575   1
   3  -5  -4 3.51429 0.96605   4
  -3  -5   4 3.81519 1.88256   2
  -3  -5   4 4.11195 1.35108   3
  -3   5  -4 7.15260 2.55444   1
   5  -4  -3 5.07095 2.34403   3
  -5   1   4 5.22844 2.35129   2
  -5   1   4 6.88510 1.32488   1
   4  -5   1 6.39060 1.35914   4
   5  -1   4 6.20807 1.57537   2
   5  -1   4 5.85921 1.89835   4
   5   1  -4 6.12334 1.12023   1
   5   1  -4 3.51218 1.70832   3
   5   1  -4 5.57924 2.00156   4
  -1  -4  -5 10.6966 2.93249   3
  -1  -4  -5 6.56177 1.61877   4
   1   4  -5 6.74976 1.90602   4
   1  -4   5 6.51497 2.39530   1
   4   5  -1 15.2483 2.63583   4
  -4   5   1 7.94869 2.18325   1
  -1   4   5 3.77101 1.68095   1
  -4  -5  -1 5.58357 1.61162   2
   5  -1   4 6.11804 2.18607   1
   1  -4   5 6.52407 2.16195   2
   4  -5   1 11.0735 2.84800   2
   4  -5   1 6.29999 2.15478   3
  -5  -1  -4 7.08926 1.11042   2
  -5  -1  -4 6.49626 2.12683   3
  -4  -5  -1 3.28118 1.76739   3
  -5  -1   4 6.20700 2.57544   2
   4  -5  -1 7.25243 1.12926   4
  -1  -4   5 14.0189 3.22024   2
   5  -1  -4 12.4765 2.53313   4
  -5   1  -4 5.35509 1.86988   3
  -4  -5   1 5.80511 1.85416   2
  -4  -5   1 7.18177 2.21993   3
  -4   5  -1 7.33779 2.30796   1
  -4   5  -1 7.75146 1.48705   4
   4   5   1 8.47252 2.41040   1
   4  -5  -1 5.57126 2.30780   2
   4  -5  -1 6.75438 2.46509   3
  -1  -4   5 7.59120 2.48403   1
   5   1   4 4.40550 1.98239   1
   1   4   5 8.44129 2.67224   1
   4   5   1 7.22289 1.82277   4
   5  -1  -4 6.75055 2.35149   3
   1  -4  -5 2.55605 1.65693   3
   1  -4  -5 4.81331 1.32465   4
   5   1   4 3.95648 1.54864   4
  -1   4  -5 7.41893 2.03929   4
   1   4   5 10.6626 2.10735   2
   3  -4   5 7.35908 2.16922   2
   3  -4   5 3.18680 1.91146   1
   5  -3   4 6.93454 1.99591   4
   5   3  -4 4.63792 1.45203   1
   5   3  -4 3.15014 1.62188   4
  -5  -3  -4 5.46619 2.36366   3
   3   4  -5 1.79945 1.31180   4
  -4   5   3 5.33008 1.88914   1
   4  -5   3 5.36155 2.23056   1
   4  -5   3 3.52461 1.77050   2
   4  -5   3 4.19285 1.55215   3
   4   5  -3 18.4842 3.18579   1
   4   5  -3 7.61957 2.14771   4
  -4  -5  -3 20.5776 4.12529   3
  -5   3   4 3.60751 1.32490   1
  -3   4   5 4.20997 1.74786   1
  -4  -5  -3 8.52781 1.58713   2
   5  -3   4 8.13119 2.66844   1
   5  -3   4 2.76717 1.53451   3
  -3   4   5 4.69024 2.12643   2
  -5   3   4 4.29989 2.00086   2
   3   4  -5 4.57895 1.70234   1
  -4   5   3 12.8350 3.11308   2
  -3  -4  -5 6.89731 2.47431   3
   3  -4  -5 4.08627 1.23146   4
   4  -5  -3 9.11555 2.91407   3
   3  -4  -5 3.60532 2.02337   3
   3   4   5 5.09532 1.00358   2
   3   4   5 8.00222 2.14014   4
  -5  -3   4 3.67690 1.86107   2
  -5  -3   4 7.02044 2.00925   3
  -5   3  -4 3.10318 1.53297   3
  -5   3  -4 5.03496 1.80102   4
   4   5   3 4.70182 1.58062   4
   3   4   5 8.69245 2.84282   1
   5  -3  -4 5.63953 1.64415   4
   4   5   3 4.17835 2.05060   1
  -4  -5   3 5.50470 2.19603   2
  -4  -5   3 5.66018 1.85306   3
  -4   5  -3 5.10307 2.12568   1
  -4   5  -3 4.78229 1.51203   4
   4  -5  -3 6.90827 1.25409   4
   5   3   4 8.04222 2.80389   1
   5   3   4 4.08527 1.61740   4
  -3  -4   5 4.70743 1.85602   1
  -3  -4   5 19.3253 3.82170   2
  -3  -4   5 5.83876 1.52780   3
  -3   4  -5 1.92483 1.20965   4
   5  -3  -4 6.94726 2.42542   3
  -5  -5   0 0.67991 1.09475   2
  -5  -5   0 -1.0262 0.87253   3
  -5   0  -5 0.03606 1.09579   3
  -5   0   5 3.22944 1.02558   1
  -5   0   5 -2.8497 0.78671   2
  -5   5   0 1.20487 1.16675   1
   0  -5  -5 0.12086 1.09949   3
   0  -5  -5 0.48443 0.63804   4
   0  -5   5 0.67280 1.29474   1
   0  -5   5 -0.3239 0.99724   2
   0   5  -5 -0.3878 1.12546   1
   0   5  -5 7.99433 2.03230   4
   0   5   5 0.30408 1.26312   1
   0   5   5 2.16996 1.26088   2
   5  -5   0 0.87901 1.21485   2
   5  -5   0 2.51267 1.86111   3
   5  -5   0 2.24950 0.85768   4
   5   0  -5 0.15631 1.12109   3
   5   0  -5 0.59307 1.00318   4
   5   0   5 2.99938 1.73217   1
   5   0   5 2.43778 0.98423   2
   5   0   5 11.8537 2.95043   4
   5   5   0 -0.0337 0.57708   1
   5   5   0 -0.0486 0.79877   4
  -5  -5  -2 1045.17 19.9275   2
  -5  -5  -2 1062.18 26.2823   3
   5   5  -2 1087.66 23.6392   4
   5   2  -5 1107.80 24.7443   4
  -5  -2  -5 1071.07 25.5966   3
   5  -2   5 1028.96 21.7878   2
   5  -2   5 1049.09 23.4964   4
   5   2  -5 1033.07 19.6324   1
   5   2  -5 1037.64 23.6303   3
  -5   2   5 1044.07 20.4208   1
  -5   2   5 1068.50 26.9817   2
   2  -5   5 1009.96 17.5146   3
   5   5  -2 1000.63 22.4985   1
  -5   5   2 1039.36 22.7823   1
  -5   5   2 1078.25 26.2506   2
  -2  -5  -5 1062.14 26.2181   3
  -2  -5  -5 1031.75 20.9313   4
   2   5  -5 1060.08 23.6378   4
   2  -5   5 1062.98 26.8421   1
   5  -2   5 1067.40 26.4984   1
  -2   5   5 1075.23 25.4860   1
  -2   5   5 1037.46 24.5631   2
   5  -5   2 1045.35 20.5757   4
   5  -5   2 1077.72 25.6390   2
   2   5  -5 1046.86 24.9844   1
   2  -5   5 1044.51 25.3410   2
   5  -5   2 1043.13 24.4022   3
  -5  -5   2 1029.71 24.3077   3
   2  -5  -5 1050.97 26.0998   3
  -5   5  -2 1070.22 25.1838   1
   2   5   5 1040.93 19.7507   2
   2   5   5 1075.38 21.4036   4
   5  -5  -2 1096.30 27.0397   3
   5  -5  -2 1048.39 18.2928   4
   2  -5  -5 1042.70 19.1034   4
   2   5   5 1101.79 27.4368   1
  -2  -5   5 1106.05 26.7407   2
   5  -2  -5 1106.86 26.5492   3
   5  -2  -5 1046.42 22.5085   4
  -2   5  -5 1097.57 22.7948   4
  -5  -2   5 1067.33 19.7073   1
  -5  -2   5 1069.91 27.2201   2
  -5   2  -5 1040.77 23.0318   3
  -5   2  -5 1065.04 23.4614   4
  -2  -5   5 1026.40 17.8517   3
   5   2   5 1053.07 26.5370   1
   5   2   5 1048.65 23.7673   4
  -5   5  -2 1023.92 20.4363   4
  -5  -5   2 1042.33 24.5312   2
   5   5   2 1064.73 25.4140   1
   5   5   2 1038.06 22.3843   4
  -5  -5  -4 -1.0746 1.15080   3
   5  -4   5 1.05844 1.25956   2
   5  -4   5 0.69459 1.05478   3
  -5  -4  -5 2.20344 1.56420   3
   5   4  -5 0.59915 1.32256   4
   5  -5   4 1.60899 1.41390   2
   5  -5   4 7.01809 2.17351   3
   5   5  -4 2.07887 1.20361   1
  -5   4   5 3.06209 1.44889   1
  -5   4   5 4.17621 2.15801   2
   5  -5   4 0.21474 1.22618   1
  -5   5   4 0.44863 1.42146   2
   4   5  -5 1.42519 1.45524   4
   5  -4   5 4.36941 2.30084   1
   4   5  -5 3.39717 1.56822   1
  -4   5   5 1.31274 1.39505   1
  -4   5   5 3.12336 2.07244   2
   5   4  -5 0.56165 0.96121   1
   5   5  -4 0.62649 1.30667   4
   4  -5   5 1.35739 1.61703   1
   4  -5   5 0.22104 1.18552   2
   4  -5   5 2.30902 1.21766   3
  -4   5  -5 1.23904 1.14880   4
  -4  -5   5 1.42719 1.41268   2
   4   5   5 4.09763 2.44132   1
   4  -5  -5 2.00863 1.88425   3
   4  -5  -5 0.72851 0.76559   4
   5  -5  -4 1.85423 0.91342   4
  -5   5  -4 2.77258 1.45960   4
  -5  -4   5 2.90663 1.36627   3
  -5   4  -5 0.48058 0.84476   3
   5  -4  -5 9.04454 3.14907   3
   5  -4  -5 2.09882 1.17356   4
  -4  -5   5 3.67082 1.50864   3
  -5  -5   4 0.57900 1.41152   2
  -5  -5   4 1.36219 1.03423   3
   4   5   5 3.98343 1.68348   4
  -5  -4   5 -0.0284 1.31677   2
   5   4   5 0.51075 1.72640   1
   5   4   5 0.30852 1.02801   4
  -5   4  -5 0.91453 1.06601   4
   5  -5  -4 0.10620 1.17410   3
   5   5   4 3.62033 2.13522   1
   5   5   4 0.89898 1.10140   4
  -6   0   0 -0.2491 1.25893   2
  -6   0   0 -1.7198 1.08663   3
   0  -6   0 -0.7032 1.26464   2
   0  -6   0 1.27802 1.53367   3
   0   0  -6 3.15538 1.62631   3
   0   0  -6 3.80167 1.69799   4
   0   0   6 3.72403 2.21961   1
   0   6   0 -0.3538 1.31320   1
   0   6   0 1.37620 0.89803   4
   6   0   0 7.42056 1.68371   1
   6   0   0 -0.8172 1.51436   3
   6   0   0 1.68456 1.39226   4
   2   0   6 279.797 11.9238   1
   2   0   6 269.427 8.44524   2
   6  -2   0 263.461 8.16708   1
   6  -2   0 266.352 11.3096   3
   6  -2   0 282.671 9.18758   4
   6   2   0 268.673 8.26321   1
   6   2   0 280.140 9.91835   4
   0   6   2 280.447 11.3805   1
  -6  -2   0 266.741 9.85284   2
  -6  -2   0 278.460 11.3537   3
  -6   2   0 268.687 8.15966   1
  -6   2   0 267.193 10.5172   2
  -2   0  -6 272.925 8.85504   3
  -2   0  -6 332.483 10.6920   4
  -2   0   6 276.917 10.2850   1
  -2   0   6 273.592 11.1054   2
   0  -6  -2 307.865 10.4882   2
   0  -6  -2 268.580 11.0056   3
   0  -6   2 290.897 11.3703   2
   0  -6   2 281.122 9.18075   3
   0   6  -2 279.931 11.2877   1
   0   6  -2 265.839 7.93155   4
   2   0  -6 272.982 9.79369   4
   0   6   2 276.239 5.91173   4
   2   0  -6 257.517 8.97629   3
   6  -4   0 4047.45 67.7622   2
   0   6  -4 4096.88 62.7448   4
   0   6   4 4320.98 69.5851   1
   0   6   4 4204.39 64.3592   2
   4   0  -6 4092.76 65.1088   3
   4   0  -6 4181.50 65.3550   4
   4   0   6 4265.55 70.7533   1
   4   0   6 4079.04 59.2428   2
  -4   0  -6 4163.04 64.6215   3
  -4   0  -6 4160.24 65.1153   4
  -4   0   6 4040.82 62.0303   1
  -4   0   6 4180.05 70.4433   2
   0  -6  -4 4201.80 64.3932   2
   0  -6  -4 4252.30 69.3256   3
   0  -6  -4 4048.68 57.8714   4
   6  -4   0 4220.18 69.1693   3
   6  -4   0 4087.76 60.8267   4
   6   4   0 4164.81 63.7491   1
   6   4   0 4211.54 64.8496   4
  -6  -4   0 4157.45 63.9450   2
  -6  -4   0 4178.61 68.5235   3
  -6   4   0 4170.13 63.6887   1
  -6   4   0 4131.76 67.9230   2
   0   6  -4 4065.91 68.3226   1
   0  -6   4 4143.92 68.4960   2
   0  -6   4 4051.54 58.6783   3
  -6   1   1 1817.81 27.2871   1
   6   1  -1 1850.35 36.3502   3
   1  -6   1 1888.07 35.7509   2
  -1  -1  -6 1879.29 32.7564   3
  -1  -1  -6 1892.57 33.1316   4
   1  -1   6 1917.22 37.0912   1
   1   1  -6 1838.87 29.6167   3
   1   1  -6 1871.24 33.6269   4
   1   6  -1 1922.54 36.6110   1
  -1   1   6 1928.84 36.0783   1
  -1   1   6 1810.47 34.4971   2
   1   6  -1 1874.10 29.7499   4
  -6  -1  -1 1799.61 31.9043   2
  -6  -1  -1 1861.90 36.3765   3
   6  -1   1 1806.78 31.1905   1
   6  -1   1 1839.57 36.0732   3
   6  -1   1 1890.90 32.8008   4
   6   1  -1 1897.33 33.5577   4
  -1  -6  -1 1900.41 35.3851   3
  -1  -6  -1 1843.69 33.5468   2
  -6   1   1 1924.70 35.5064   2
   6   1  -1 1737.60 26.9314   1
  -6   1  -1 1889.87 33.6895   2
  -6  -1   1 1822.36 35.7823   3
  -6  -1   1 1915.08 35.5033   2
   6  -1  -1 1839.17 32.2630   4
   6  -1  -1 1902.19 36.9400   3
  -1  -6   1 1882.97 35.2819   2
   1   6   1 1848.64 28.0685   4
   6   1   1 1811.08 31.4354   1
   6   1   1 1887.53 33.6844   4
  -1   1  -6 1862.00 29.4266   3
   1   1   6 1910.46 37.2138   1
   1   1   6 1808.42 31.3978   2
  -1   1  -6 1820.33 33.2783   4
   1  -1  -6 1853.02 32.7160   4
  -1  -1   6 1903.56 35.3901   1
  -1  -1   6 1867.21 35.1887   2
  -1   6  -1 1840.85 28.0480   4
   1   6   1 1870.49 36.2372   1
   1  -1  -6 1816.35 32.5109   3
   1  -6  -1 1851.51 34.8456   2
   1  -6  -1 1855.03 35.3093   3
  -1   6  -1 1795.57 35.7871   1
   1   6  -3 468.254 12.6920   4
   6  -3   1 459.353 13.1706   1
   1   6  -3 510.823 15.9737   1
   3  -1   6 448.929 16.0830   1
   6  -3   1 480.766 15.6533   3
  -1   6   3 451.105 15.2463   1
   6   3  -1 443.185 13.5019   4
  -6   3   1 456.456 15.1948   2
   6  -3   1 471.386 14.7427   2
   1  -6   3 463.520 11.8380   3
   6   3  -1 498.793 11.8741   1
   1  -6   3 473.345 15.5741   2
  -3   1   6 476.703 13.6210   1
  -1  -6  -3 463.951 12.9224   2
  -6   3   1 469.156 11.7206   1
   3  -1   6 469.500 12.2965   2
   3   1  -6 467.918 12.7942   3
   3   1  -6 482.379 14.3122   4
  -6  -3  -1 470.894 12.4066   2
  -3  -1  -6 485.478 14.0644   3
  -3  -1  -6 476.420 13.8729   4
  -1  -6  -3 475.445 15.7825   3
  -6  -3  -1 488.694 16.0150   3
   3   1   6 458.776 16.1495   1
  -1   6  -3 472.490 11.8250   4
   6  -3  -1 469.350 12.0380   4
   1  -6  -3 472.091 14.2849   2
   6   3   1 475.221 13.6132   1
   6   3   1 463.091 13.6728   4
   1   6   3 452.618 15.6581   1
   1   6   3 474.787 10.4733   4
  -3   1  -6 482.132 14.1328   4
  -6   3  -1 465.040 13.2288   1
   1  -6  -3 466.273 15.7569   3
   3   1   6 466.168 10.1765   2
   6  -3  -1 484.525 16.3240   3
  -6  -3   1 488.761 15.7230   3
  -3  -1   6 485.821 13.5488   1
  -3  -1   6 480.080 16.1367   2
  -3   1  -6 451.065 12.1300   3
  -6  -3   1 476.318 14.3688   2
  -1  -6   3 482.029 15.6648   2
   3  -1  -6 456.281 14.0404   3
   3  -1  -6 493.090 13.8624   4
   1  -6  -3 452.701 8.06152   4
  -6   3  -1 442.137 14.3110   2
  -1   6  -3 470.217 15.8976   1
  -1  -6   3 467.771 11.7785   3
   1  -6   5 628.210 12.1047   3
   1   6  -5 694.657 20.4358   1
   1   6  -5 671.833 17.6797   4
   1  -6   5 687.623 20.3626   2
  -6  -5  -1 680.694 20.6009   3
  -6   5   1 674.759 17.4444   1
  -6   5   1 684.199 20.5782   2
  -5  -1  -6 690.906 19.3780   3
  -5  -1  -6 673.528 18.3213   4
   6  -5   1 697.993 20.3644   3
   5   1  -6 663.981 18.2425   3
  -6  -5  -1 650.300 16.0170   2
  -1   6   5 681.977 20.6312   1
   6  -5   1 665.509 15.3134   4
   6   5  -1 659.287 17.3505   1
  -1  -6  -5 706.998 21.0446   3
  -1  -6  -5 664.594 14.7114   4
   5  -1   6 646.237 15.1773   2
   5  -1   6 690.388 18.7131   4
   5   1  -6 674.495 18.8404   4
   5  -1   6 686.708 21.3792   1
   1  -6   5 695.697 21.1812   1
  -5   1   6 709.319 22.1703   2
   6   5  -1 692.580 18.1270   4
  -5   1   6 662.723 15.4895   1
   6  -5   1 688.552 20.1452   2
  -1   6  -5 642.666 16.7459   4
  -6  -5   1 668.557 18.5100   2
   1  -6  -5 696.902 20.9729   3
  -1  -6   5 650.721 12.3726   3
   1   6   5 661.391 16.3368   2
   5   1   6 711.248 21.6189   1
   5   1   6 690.716 18.6174   4
  -1  -6   5 663.627 20.6275   2
  -1   6  -5 684.560 21.0832   1
   6  -5  -1 668.141 14.3929   4
   6   5   1 685.293 17.6813   4
  -6  -5   1 696.097 20.1513   3
  -6   5  -1 677.779 18.6934   1
   5  -1  -6 704.133 18.3680   4
   1  -6  -5 647.035 13.3901   4
   5  -1  -6 693.931 19.7054   3
   1   6   5 708.223 21.5456   1
   5   1   6 638.767 12.5124   2
  -5   1  -6 661.718 17.8501   3
   6  -5  -1 636.848 20.3757   3
  -5  -1   6 644.691 20.9916   2
  -5   1  -6 676.338 18.3795   4
  -5  -1   6 666.563 15.0456   1
   0  -2   6 276.671 10.5250   2
   0  -2   6 271.836 11.0966   1
   0   2  -6 286.286 10.1983   4
   2   6   0 271.528 7.87844   4
   6   0  -2 270.021 11.2846   3
   6   0  -2 285.481 9.84919   4
   6   0   2 275.298 9.74363   1
   6   0   2 267.819 9.68681   4
   0  -2  -6 282.578 10.2514   3
   0  -2  -6 280.857 9.39644   4
   0   2   6 274.359 9.76335   2
  -6   0  -2 277.721 8.90219   2
  -2  -6   0 296.127 10.7239   3
   0   2  -6 266.021 6.06454   3
   0   2   6 280.213 11.5011   1
  -6   0  -2 287.922 11.3597   3
   2  -6   0 263.163 10.3516   3
   2   6   0 276.528 11.0660   1
  -2  -6   0 271.350 10.1321   2
  -2   6   0 275.672 11.0253   1
  -6   0   2 279.266 11.2749   2
   2  -6   2 6.55977 2.50953   2
  -2  -2  -6 0.56615 1.27995   3
  -2  -2  -6 -0.7622 0.85525   4
  -2  -6  -2 0.39124 1.30751   3
   6  -2   2 -0.3799 1.12274   1
   6  -2   2 -1.2542 0.46456   2
   2   2  -6 -0.2565 1.13202   4
  -2   2   6 -1.4926 0.97870   1
  -2   2   6 -0.2531 1.28308   2
   2   2  -6 -1.4231 0.65933   3
   2  -6   2 0.02931 0.97491   3
   6  -2   2 3.78120 1.95844   3
   6  -2   2 0.06687 0.97128   4
   6   2  -2 -0.9938 0.55940   1
   6   2  -2 -1.0063 0.89831   4
  -6   2   2 -0.0864 1.33866   2
  -6  -2  -2 0.72248 1.56771   3
  -2   6   2 -0.9232 1.01756   1
  -6   2   2 -0.1216 0.63385   1
   2   6  -2 -0.4998 0.93339   4
  -6  -2  -2 1.07702 1.10079   2
  -2  -6  -2 1.74367 1.33372   2
   2   2   6 0.17875 0.80501   2
  -6   2  -2 2.74231 1.62989   2
  -2  -6   2 9.76898 2.37927   3
   2  -2  -6 -0.3896 1.11352   3
  -2   2  -6 3.58602 1.74871   4
  -2  -2   6 0.40048 1.25081   1
  -2   6  -2 2.16977 1.10397   4
  -2   2  -6 -0.2387 0.73473   3
   6  -2  -2 2.09084 1.84872   3
   6  -2  -2 0.43524 0.96576   4
   2  -6  -2 6.31366 2.39069   2
   6   2   2 -1.1971 0.88926   1
   6   2   2 -1.0535 0.82060   4
   2   2   6 -0.6160 1.40822   1
  -2  -6   2 0.97035 1.62685   2
  -6  -2   2 0.72866 1.30335   2
   2   6   2 1.94264 1.92271   1
   2  -2  -6 1.31618 1.21515   4
  -2   6  -2 1.94600 1.70977   1
  -2  -2   6 2.15526 1.74374   2
  -6  -2   2 -1.1842 0.96296   3
   2  -6   4 4116.04 68.3302   2
  -4  -2  -6 4129.08 66.9499   3
  -6  -4  -2 4009.62 59.5472   2
   6  -4   2 4131.09 66.1971   1
  -2  -6  -4 4123.70 61.4278   2
  -2   6   4 4176.60 68.1599   1
  -2   6   4 4202.08 67.0509   2
  -4  -2  -6 4243.24 65.3028   4
   4  -2   6 4075.94 70.3626   1
   4   2  -6 4089.71 63.2376   3
   2  -6   4 4047.97 60.1606   3
   2   6  -4 4129.20 67.8021   1
  -4   2   6 4129.90 70.1087   2
  -6   4   2 4180.58 69.3431   2
   4   2  -6 4261.40 67.0094   4
   4  -2   6 4017.27 63.0465   2
   6  -4   2 4184.83 67.3986   2
   6  -4   2 4097.54 67.4433   3
  -2  -6  -4 4188.90 69.5227   3
   6   4  -2 4146.71 65.5906   4
  -6   4   2 4089.26 61.8821   1
   6   4  -2 4069.37 61.6201   1
   2   6  -4 4310.43 64.9718   4
  -6  -4  -2 4210.13 69.7709   3
  -4   2   6 4084.32 63.5479   1
  -4   2  -6 4270.26 65.5668   4
  -4  -2   6 4173.05 70.1409   2
  -4  -2   6 4106.80 62.5634   1
   2   6   4 4188.55 70.2512   1
   2  -6  -4 4235.31 69.6771   3
   2  -6  -4 4055.22 56.4795   4
   2   6   4 4199.67 60.9190   4
  -6  -4   2 4131.15 67.5721   3
  -6   4  -2 4182.77 66.3534   1
  -2  -6   4 3999.07 60.0029   3
  -2   6  -4 4067.08 69.7729   1
  -2   6  -4 4116.68 62.2749   4
   6   4   2 4144.88 64.6893   4
  -6  -4   2 4103.09 67.1082   2
   6  -4  -2 4166.44 60.5413   4
   4   2   6 4167.01 70.5713   1
   4   2   6 4198.08 65.3339   4
   6  -4  -2 4254.52 70.3789   3
  -4   2  -6 4137.65 62.4019   3
  -2  -6   4 4101.22 68.6847   2
   4  -2  -6 4136.37 63.9342   4
   4  -2  -6 4069.99 67.7411   3
   6  -1   3 471.683 12.6714   2
   3   6  -1 454.135 12.3008   4
  -6  -1  -3 501.532 15.8447   3
  -3   6   1 451.223 14.6853   1
  -6  -1  -3 464.722 10.7816   2
  -3  -6  -1 472.177 13.2365   2
  -3  -6  -1 466.481 15.2000   3
   6   1  -3 473.568 14.0741   4
  -1  -3  -6 481.200 14.9387   3
   6  -1   3 464.697 13.5867   4
   3  -6   1 467.820 15.4590   2
   3  -6   1 447.379 14.2074   3
   1  -3   6 484.347 14.7904   2
   1   3  -6 477.632 14.1189   4
   1  -3   6 481.675 16.1572   1
   6   1  -3 482.302 15.6270   3
   3   6  -1 481.182 15.0443   1
  -6   1   3 474.672 15.9485   2
  -1   3   6 459.166 15.2880   1
  -1  -3  -6 452.757 12.7207   4
   1   3   6 464.959 16.1745   1
   6  -1  -3 467.632 13.2708   4
  -3  -6   1 450.118 14.3152   2
   3   6   1 471.071 15.4220   1
   3   6   1 480.205 11.9584   4
  -6  -1   3 476.514 16.2424   2
   6  -1  -3 482.482 15.9343   3
   3  -6  -1 477.494 15.4230   3
  -1   3  -6 484.748 14.0619   4
   1  -3  -6 479.254 14.8584   3
  -1  -3   6 472.774 15.0898   1
  -3   6  -1 466.367 9.72540   4
  -3  -6   1 488.959 14.4282   3
  -6   1  -3 431.023 12.1738   2
  -6   1  -3 457.292 14.8945   3
   3  -6  -1 475.894 15.4483   2
  -3   6  -1 473.135 15.4288   1
   6   1   3 480.943 14.0585   4
   1   3   6 470.309 12.3845   2
  -1  -3   6 454.869 15.1258   2
  -6   3   3 644.768 19.7647   2
  -3   3   6 655.789 19.2266   2
  -3  -6  -3 640.422 14.6875   2
  -3  -6  -3 622.401 19.1740   3
   6  -3   3 648.858 18.2842   3
   3   6  -3 678.822 18.7079   1
  -3  -3  -6 662.769 18.6796   3
   6  -3   3 632.121 16.4684   4
  -3  -3  -6 661.591 16.7705   4
  -3   3   6 656.013 17.7410   1
  -6  -3  -3 620.532 11.8628   2
  -6  -3  -3 670.035 19.9090   3
   6  -3   3 619.106 17.3228   2
   3   3  -6 638.880 14.1919   3
   6   3  -3 673.819 18.1022   4
   6   3  -3 632.931 13.3813   1
   3   6  -3 641.119 16.6819   4
   6  -3   3 664.077 18.4049   1
   3  -3   6 657.479 20.2990   1
   3   3  -6 659.753 18.0548   4
  -6   3   3 655.701 14.0264   1
   3  -6   3 651.814 16.2541   3
   3  -6   3 659.016 19.3111   2
  -3   6   3 676.048 19.2306   2
  -3   6   3 675.162 18.6592   1
   6   3   3 636.958 18.5112   1
   3  -6  -3 666.875 19.1454   2
   3  -6  -3 625.450 19.4840   3
   3  -3  -6 650.929 18.8262   3
  -3  -3   6 647.269 17.1538   1
   3   3   6 672.670 17.1206   4
  -3  -6   3 633.701 15.8138   3
  -3   3  -6 642.996 13.6417   3
  -3  -6   3 638.020 19.0281   2
   3   6   3 675.136 20.1571   1
   6  -3  -3 664.077 20.1661   3
   6  -3  -3 643.711 15.2626   4
  -3   3  -6 659.292 17.3442   4
   3   6   3 654.638 15.0922   4
   3   3   6 607.227 11.1681   2
  -3   6  -3 673.509 19.8555   1
  -3   6  -3 654.348 14.7868   4
  -3  -3   6 663.025 20.1616   2
  -3  -3   6 643.160 13.9997   3
  -6  -3   3 660.172 19.3852   2
  -6  -3   3 665.320 18.5819   3
   6   3   3 649.914 17.2295   4
   3   3   6 661.070 20.4931   1
   3  -3  -6 651.832 15.8571   4
   3  -6   5 355.311 10.0221   3
  -5  -3  -6 379.002 14.7949   3
  -6   5   3 355.219 15.0045   2
   5   3  -6 373.974 12.5052   3
  -5   3   6 356.101 11.8530   1
  -6   5   3 371.839 12.0917   1
   3   6  -5 383.900 14.3322   1
   5   3  -6 392.666 14.1227   4
   3  -6   5 367.500 14.7151   2
   6  -5   3 361.353 14.2641   1
   6  -5   3 369.778 14.2044   2
  -3   6   5 360.739 14.0102   1
  -3   6   5 372.253 14.5271   2
  -5   3   6 382.356 15.6741   2
   6   5  -3 376.995 13.5978   4
   5  -3   6 377.107 12.7599   2
   6  -5   3 368.332 11.7083   4
  -3  -6  -5 366.509 15.1390   3
  -6  -5  -3 358.994 15.0775   3
   5  -3   6 373.025 15.6391   1
   3   6  -5 368.733 13.2918   4
   5   3  -6 381.590 11.5138   1
   6   5  -3 378.888 12.0109   1
  -3   6  -5 359.152 15.3082   1
  -3  -6   5 367.819 15.1318   2
   3   6   5 356.590 15.5971   1
   3   6   5 358.249 9.67745   2
  -3  -6   5 351.303 10.1115   3
   6  -5  -3 366.844 15.6345   3
   6  -5  -3 369.770 9.95447   4
   5   3   6 372.880 15.8779   1
   5   3   6 365.857 13.0871   4
  -6   5  -3 375.832 11.7958   4
   6   5   3 388.477 12.9788   4
  -5  -3   6 378.629 15.7075   2
  -5   3  -6 375.374 12.0620   3
  -5   3  -6 369.143 13.0819   4
   6   5   3 376.580 14.9053   1
  -3   6  -5 384.985 12.3775   4
  -5  -3   6 369.783 11.4391   1
  -5  -3   6 370.271 12.1656   3
  -6  -5   3 382.153 14.7137   2
   3   6   5 391.837 11.8873   4
   5  -3  -6 373.897 15.0011   3
   5  -3  -6 371.670 12.0967   4
   3  -6  -5 382.192 15.5293   3
   3  -6  -5 356.760 9.00771   4
  -6  -5   3 378.013 13.8197   3
  -6   5  -3 344.190 14.0018   1
   6   0   4 4301.88 65.7233   4
  -6   0  -4 4300.18 67.9979   3
   0  -4  -6 4036.82 61.6267   4
   4   6   0 4079.66 67.0543   1
   4   6   0 4126.49 62.7658   4
  -4  -6   0 4155.52 64.8047   2
   0  -4   6 4243.76 68.9683   1
   0  -4   6 4156.22 68.0305   2
   4  -6   0 4079.40 67.4764   3
   0  -4  -6 4105.68 67.7930   3
  -6   0   4 4268.41 70.9292   2
  -6   0  -4 4135.07 59.8706   2
  -4   6   0 4086.86 57.0286   4
   0   4  -6 4084.59 64.8313   4
   6   0  -4 4198.41 68.4530   3
   6   0  -4 4160.66 65.1091   4
   6   0   4 4182.89 68.1331   1
   4  -6   0 4181.02 68.6714   2
  -4   6   0 4151.60 67.1563   1
   0   4   6 4142.79 69.8161   1
   0   4   6 4149.24 63.8605   2
  -4  -6   0 4283.87 67.7867   3
   2  -4   6 4150.96 66.9811   2
   6   2  -4 4110.99 67.1903   3
  -2   4   6 4168.88 68.0578   1
   2  -4   6 4225.67 70.5150   1
  -6  -2  -4 4234.27 69.2974   3
   4   6  -2 4059.33 66.4061   1
  -4  -6  -2 4167.27 69.1614   3
   6  -2   4 4137.67 68.1247   1
  -6   2   4 4019.27 58.1469   1
  -6   2   4 4234.29 70.5256   2
  -4  -6  -2 4079.95 61.5648   2
   4   6  -2 4176.33 64.1924   4
   2   4  -6 4249.18 66.4009   4
   6  -2   4 4196.59 65.2059   4
   6   2  -4 4068.80 56.8818   1
   6   2  -4 4254.93 66.5561   4
  -4   6   2 4207.95 68.9215   2
  -2  -4  -6 4069.69 68.0648   3
  -2  -4  -6 4149.46 63.1012   4
   6  -2   4 4169.05 63.7624   2
  -4   6   2 4106.48 66.3388   1
  -2   4   6 4167.12 67.1748   2
   4  -6   2 4209.52 68.8509   2
  -6  -2   4 4139.44 69.9684   2
   6   2   4 4234.65 65.7038   4
  -2  -4   6 3910.33 56.1804   3
   4   6   2 4171.82 68.9041   1
  -2   4  -6 4299.26 65.4646   4
   2  -4  -6 4086.57 61.3154   4
   2   4   6 4075.37 59.7749   2
   4  -6  -2 4099.30 68.4414   2
   4  -6  -2 4252.38 69.7690   3
   4  -6  -2 3917.81 55.0970   4
   2  -4  -6 4246.27 69.0025   3
  -2  -4   6 4237.29 67.2509   1
   6   2   4 4105.40 68.1609   1
  -4   6  -2 4093.42 59.8113   4
   4   6   2 4053.51 62.2195   4
   6  -2  -4 4191.76 69.8325   3
   6  -2  -4 4105.82 63.3444   4
  -6   2  -4 4226.47 66.7874   3
  -2   4  -6 3960.15 55.7042   3
   2   4   6 4158.25 70.7699   1
  -4   6  -2 4318.83 69.2040   1
  -4  -6   2 4113.57 67.3383   2
  -2  -4   6 4192.76 69.4307   2
  -6  -2   4 4092.32 66.7026   3
  -6   4   4 -0.4011 1.08807   1
  -6   4   4 0.67729 1.89551   2
  -4  -6  -4 -1.1931 0.66331   2
   6  -4   4 1.96502 1.79180   2
   6  -4   4 1.34093 1.84852   1
  -4  -4  -6 18.9164 4.23280   3
  -4  -4  -6 -0.2609 1.24042   4
  -4   6   4 -0.1954 1.33891   1
  -4   6   4 -0.6187 1.70172   2
   4   6  -4 -0.7409 1.32167   4
   4  -4   6 3.09206 2.04211   2
  -4   4   6 1.80950 1.70543   1
  -4   4   6 2.02203 2.01533   2
   6  -4   4 1.66386 1.42860   4
   6   4  -4 2.27602 1.52133   1
   4   4  -6 0.69017 1.41066   1
  -4  -6  -4 5.40160 2.75556   3
   6  -4   4 10.8029 2.97903   3
  -6  -4  -4 2.29149 2.16086   3
   4  -6   4 0.29317 1.61647   1
   4  -6   4 13.9924 3.61371   2
   4  -6   4 5.60887 2.02862   3
   4  -4   6 4.81939 2.85084   1
   4   4  -6 -0.4352 1.35065   4
   4  -4  -6 -1.0815 1.55816   3
  -4   4  -6 2.34906 1.78498   4
   4   4   6 1.29835 1.64364   4
  -6   4  -4 2.06540 1.60413   4
   4   4   6 0.01681 1.87038   1
  -4  -6   4 1.40227 1.31082   3
   4   6   4 13.0705 4.01576   1
  -6  -4   4 4.49923 2.48359   2
  -6  -4   4 -0.4486 0.99545   3
  -4  -4   6 0.46523 1.80684   2
  -4  -4   6 4.05782 1.65512   3
   4  -6  -4 1.32694 2.27260   3
   4  -6  -4 1.42824 0.89652   4
  -4  -6   4 2.19928 2.04044   2
   4  -4  -6 0.22718 1.22230   4
  -4   6  -4 0.39750 1.78748   1
  -4   6  -4 -0.6789 1.15458   4
  -4  -4   6 1.02829 1.44390   1
   6   4   4 -0.5691 1.52398   1
   6   4   4 0.38420 1.31667   4
   6  -4  -4 -0.0054 1.04438   4
   4   6   4 -0.0276 1.20857   4
   6  -4  -4 2.14967 2.24152   3
   6  -1   5 664.918 15.5671   2
   6  -1   5 692.845 20.7733   1
  -6  -1  -5 642.023 12.4810   2
   6  -1   5 672.449 18.3625   4
   6   1  -5 652.886 12.3179   1
   1  -5   6 659.808 20.5634   1
  -6   1   5 652.684 12.9492   1
  -6   1   5 667.549 21.5709   2
  -5  -6  -1 685.250 16.8324   2
  -5  -6  -1 675.978 20.3864   3
   6   1  -5 690.962 19.6899   3
   6   1  -5 693.775 19.1312   4
   5   6  -1 684.088 17.5354   4
   1   5  -6 673.707 18.1399   4
  -5   6   1 673.024 18.5663   1
  -5   6   1 696.830 20.6633   2
  -1  -5  -6 706.141 20.6987   3
  -1  -5  -6 676.387 15.8564   4
   1  -5   6 646.871 19.6758   2
   5  -6   1 664.001 20.1932   2
   5  -6   1 655.027 19.5768   3
  -1   5   6 648.980 20.1477   1
  -6  -1  -5 660.012 19.6813   3
   1   5  -6 678.393 19.9565   1
   5  -6   1 656.177 14.1196   4
   1  -5  -6 673.736 15.0611   4
  -5   6  -1 654.871 14.0404   4
  -1  -5   6 701.177 20.2112   1
   1   5   6 680.525 16.1648   2
   5  -6  -1 710.845 21.0028   2
   5  -6  -1 700.017 20.9648   3
   5  -6  -1 662.524 12.6893   4
  -1  -5   6 684.621 20.5740   2
  -1   5  -6 686.081 17.8556   4
  -6   1  -5 680.816 18.8428   3
   1   5   6 672.931 21.3611   1
  -5   6  -1 665.049 19.3172   1
   5   6   1 706.233 19.9596   1
   5   6   1 684.560 17.0792   4
   6  -1  -5 665.689 20.0933   3
   6  -1  -5 677.203 17.9727   4
   1  -5  -6 665.431 20.3126   3
  -6  -1   5 704.578 22.1226   2
  -5  -6   1 655.350 18.3875   2
  -5  -6   1 672.883 19.4635   3
   6   1   5 675.954 20.6110   1
   6   1   5 655.951 18.4117   4
   3   5  -6 373.141 13.6128   4
   6  -3   5 382.338 15.2736   1
  -6  -3  -5 360.534 14.9179   3
  -3   5   6 373.832 14.6191   2
   6   3  -5 364.415 13.4275   3
  -5   6   3 386.758 15.3299   2
   3  -5   6 370.609 15.6580   1
  -6   3   5 362.944 10.7669   1
  -6   3   5 387.833 15.9733   2
  -5  -6  -3 361.137 9.88844   2
  -5  -6  -3 401.413 15.7765   3
   6   3  -5 407.582 14.4362   4
   3  -5   6 357.752 14.0091   2
   5  -6   3 368.601 14.6057   2
  -5   6   3 356.523 13.0331   1
   6  -3   5 387.455 12.9686   2
  -3  -5  -6 395.075 15.4082   3
  -3  -5  -6 379.565 12.1227   4
   6  -3   5 360.644 12.8325   4
   5  -6   3 369.839 13.2923   3
   5   6  -3 379.760 13.3436   1
  -3   5   6 377.287 14.3440   1
   6   3  -5 363.573 10.0830   1
  -6  -3   5 367.834 13.2556   3
   3  -5  -6 389.766 10.8148   4
  -6   3  -5 358.786 12.7517   4
  -6   3  -5 369.243 13.0543   3
  -5   6  -3 376.467 14.9535   1
   6   3   5 375.056 15.4351   1
   3   5   6 378.535 16.2384   1
   3   5   6 356.357 11.9468   4
   5  -6  -3 388.339 15.8149   3
   5  -6  -3 372.522 9.42047   4
  -5   6  -3 369.426 11.1593   4
  -3  -5   6 370.175 10.5624   3
  -3   5  -6 365.396 12.6561   4
   5   6   3 385.864 15.3753   1
   5   6   3 369.753 12.1965   4
   6  -3  -5 372.822 15.5536   3
   6  -3  -5 362.533 11.7601   4
   6   3   5 374.895 13.2890   4
  -5  -6   3 364.616 13.0221   3
  -6  -3   5 369.297 15.5029   2
   3  -5  -6 371.506 15.1827   3
  -3  -5   6 379.938 15.5877   2
  -5  -6   3 369.289 14.5530   2
  -6  -5  -5 694.681 22.7352   3
   5  -5   6 732.048 23.4150   1
   5  -5   6 700.477 20.7689   2
   5   5  -6 700.061 19.0413   1
   6  -5   5 706.648 22.6285   1
  -6   5   5 714.286 18.7498   1
  -6   5   5 728.603 23.4226   2
  -5  -6  -5 712.224 23.1436   3
   6   5  -5 704.315 20.9473   4
   5  -6   5 703.713 18.1106   3
  -5  -5  -6 704.793 22.7045   3
   5  -6   5 660.458 22.1014   1
   5  -6   5 691.545 21.5354   2
   5   6  -5 712.395 19.7451   1
   6  -5   5 700.236 20.8595   2
  -5   5   6 702.108 19.7177   1
  -5   5   6 726.440 23.0353   2
   5   6  -5 704.628 20.6977   4
   5   5  -6 680.195 20.5385   4
  -5   6   5 702.530 20.0474   1
  -5   6   5 692.405 22.4934   2
   6  -5   5 689.398 18.9985   3
   6   5  -5 712.655 18.0714   1
  -5   6  -5 662.542 18.0738   4
  -5  -6   5 688.006 18.1249   3
   5  -5  -6 712.805 23.2508   3
   5  -5  -6 689.775 16.5868   4
  -5   6  -5 693.423 22.4986   1
  -6  -5   5 694.044 19.2204   3
  -6   5  -5 719.025 19.1077   3
  -5  -5   6 706.865 23.2449   2
   5   5   6 698.354 23.5353   1
   5   5   6 704.672 19.3858   4
  -5   5  -6 684.311 17.1882   3
  -5  -5   6 686.382 17.5610   3
   5   6   5 718.309 23.7253   1
   5   6   5 732.037 19.0682   4
   6  -5  -5 695.192 23.2527   3
   6  -5  -5 721.281 16.4120   4
  -6   5  -5 721.274 19.0813   4
  -5   5  -6 710.884 19.4487   4
   5  -6  -5 734.507 23.8226   3
  -6  -5   5 702.245 22.7592   2
  -5  -6   5 722.072 22.9995   2
   6   5   5 702.193 23.1530   1
   6   5   5 689.793 19.3782   4
  -6  -6   0 13.5316 3.10745   2
  -6  -6   0 8.22345 2.80355   3
  -6   0  -6 10.4675 3.01508   3
  -6   0  -6 8.85040 2.70419   4
  -6   0   6 15.6740 4.19292   2
  -6   6   0 10.4152 2.88085   1
  -6   6   0 17.9292 3.94414   2
   0  -6  -6 13.6021 3.83776   3
   0  -6  -6 11.0009 2.07888   4
   0  -6   6 20.4656 4.58536   1
   0  -6   6 15.3566 3.87811   2
   0   6  -6 37.1276 6.10719   1
   0   6  -6 12.4513 2.82370   4
   0   6   6 12.6876 3.77716   1
   0   6   6 11.5737 2.79361   2
   6  -6   0 21.6472 4.40927   2
   6  -6   0 13.9619 3.65352   3
   6  -6   0 12.5649 2.14243   4
   6   0  -6 11.5430 3.18127   3
   6   0  -6 17.2043 3.56035   4
   6   0   6 12.0209 3.72677   1
   6   0   6 13.0084 2.49205   2
   6   0   6 12.0439 2.99492   4
   6   6   0 18.4168 3.90458   1
   6   6   0 7.02311 2.11077   4
  -6  -6  -2 0.01875 0.96201   2
   6  -2   6 -1.4066 0.80475   4
   6   2  -6 2.13585 1.69921   3
  -6  -2  -6 18.5106 4.05877   3
   6  -6   2 8.86749 2.96613   2
   6  -6   2 0.08087 1.45370   3
   6   6  -2 -0.6631 1.09249   1
  -6   2   6 4.78545 1.89954   1
  -6   2   6 -0.1378 1.67302   2
   6  -2   6 5.57759 2.78316   1
   2   6  -6 -1.3064 0.94553   4
  -6   6   2 2.33441 1.63039   1
  -6   6   2 0.58031 1.53613   2
  -2  -6  -6 0.80602 1.82378   3
  -2  -6  -6 4.78894 1.72159   4
   2  -6   6 2.06521 2.11750   2
   6   6  -2 -0.2583 1.28138   4
   6  -6   2 -1.2751 0.72464   4
  -2   6   6 0.52314 1.61651   1
  -2   6   6 0.12645 1.54698   2
   2   6  -6 -1.0285 1.21175   1
   6   2  -6 -0.9963 1.12194   4
   2  -6   6 -0.2579 1.37492   1
  -2  -6   6 1.30753 1.88062   2
   2  -6  -6 0.94593 1.94162   3
  -6   6  -2 0.04013 0.88048   4
   2   6   6 -0.4793 1.56529   1
   2  -6  -6 0.25203 0.90006   4
   6  -6  -2 -3.2047 0.98889   3
   6  -6  -2 0.75518 0.86286   4
  -6  -2   6 0.44386 1.61281   2
  -2   6  -6 1.57774 1.60493   4
   6  -2  -6 -0.3279 1.55166   3
   6  -2  -6 0.00124 1.37098   4
  -6   6  -2 0.29460 1.30807   1
  -6  -6   2 1.18236 1.65041   2
  -6  -6   2 0.80326 1.56362   3
   2   6   6 1.09295 1.13415   2
   6   2   6 -1.3002 1.59157   1
   6   2   6 0.30951 1.59933   4
  -6   2  -6 0.07692 1.15337   4
  -2   6  -6 -3.0902 0.84800   1
   6   6   2 15.1111 3.98694   1
   6   6   2 -0.3348 0.99902   4
  -6  -6  -4 3012.18 57.4057   3
   6   6  -4 2882.28 50.5485   1
   6   6  -4 2992.24 53.2047   4
  -6  -4  -6 2888.26 56.1480   3
  -6   6   4 2848.62 50.6544   1
   4  -6   6 2995.44 58.0477   1
   6  -4   6 2902.72 56.8776   1
   6   4  -6 3064.70 54.5907   4
  -6   4   6 2785.21 48.8095   1
  -6   4   6 3002.00 58.0737   2
   4  -6   6 2967.00 54.9164   2
  -4   6   6 2935.31 55.9329   2
  -6   6   4 2977.73 57.4937   2
  -4  -6  -6 2963.19 56.7171   3
   4   6  -6 2925.41 52.9268   4
   6  -6   4 2859.36 55.6655   1
  -4   6   6 2874.29 53.4267   1
   6  -6   4 2882.68 51.6999   3
   6  -6   4 2954.88 54.9942   2
   4  -6  -6 2977.82 57.2930   3
  -6  -4   6 2887.23 56.9702   2
  -6   6  -4 2876.84 48.7442   4
  -4  -6   6 2925.95 57.1524   2
   4   6   6 3024.61 59.1181   1
   4   6   6 2976.10 50.1069   4
   6  -6  -4 2986.09 58.0280   3
  -4   6  -6 2928.72 50.5147   4
  -6  -4   6 2878.14 50.7609   3
  -6   6  -4 2951.28 56.1231   1
   6  -4  -6 2904.30 57.1397   3
   6  -4  -6 2864.86 48.4690   4
  -6   4  -6 2949.66 50.1826   3
  -6   4  -6 2913.89 51.5121   4
   6   4   6 2881.85 57.5563   1
   6   4   6 2960.46 52.4432   4
  -6  -6   4 2943.67 55.8572   2
  -6  -6   4 2958.37 52.3326   3
   6   6   4 2933.33 56.9833   1
   6   6   4 2920.93 50.8464   4
   6   6  -6 2.59775 1.98678   4
  -6   6   6 10.9470 3.96706   2
   6   6   6 2.12959 2.26089   1
   0   7  -1 0.10010 0.94314   1
   0   7  -1 2.12111 0.91658   4
   0   7   1 2.49707 1.49881   1
   1   0  -7 2.60574 1.23117   3
   1   0  -7 3.23903 1.57477   4
   1   0   7 4.51776 2.15879   1
   1   0   7 2.53597 1.31813   2
   7  -1   0 0.14143 0.66052   1
   7  -1   0 0.61108 1.22812   3
   7  -1   0 0.02487 0.88326   4
   7   1   0 1.65876 1.02761   1
   7   1   0 4.95009 1.85261   4
  -1   0   7 3.75177 1.79469   2
   0  -7  -1 3.99947 1.87969   2
   0  -7  -1 -0.2078 1.03713   3
   0  -7   1 12.8749 3.15383   2
  -1   0   7 -0.1528 1.04236   1
  -1   0  -7 0.60475 1.08499   4
  -1   0  -7 0.50845 0.82903   3
  -7  -1   0 2.67365 1.52660   2
  -7  -1   0 2.54352 1.54704   3
  -7   1   0 0.72116 1.30813   2
   3   0  -7 3.03856 1.67590   4
   3   0  -7 2.76951 1.55819   3
   0   7   3 1.67111 1.62116   1
  -3   0   7 0.79480 1.05871   1
  -3   0   7 1.50485 1.50371   2
   0  -7  -3 5.31424 1.88596   2
   0  -7  -3 0.95136 1.39850   3
   0   7  -3 2.44702 1.06039   4
   7  -3   0 0.42429 0.67095   4
   7   3   0 0.89610 0.90102   1
   7   3   0 -0.1567 0.74893   4
  -7  -3   0 2.18258 1.37047   2
  -7  -3   0 -0.7091 0.91643   3
  -7   3   0 1.69358 1.13887   1
   0  -7  -3 5.05662 0.98749   4
   0  -7   3 9.89013 2.94314   2
   0  -7   3 1.58540 0.97661   3
   0   7  -3 0.32842 1.37587   1
   3   0   7 7.43497 1.83431   2
   7  -3   0 1.50904 1.56051   3
  -7   3   0 0.65529 1.19486   2
  -3   0  -7 0.87634 1.02362   3
  -3   0  -7 1.71580 1.26041   4
   3   0   7 -0.8506 1.04232   1
   0  -7   5 1.25569 1.62705   2
   0   7  -5 0.32462 1.51680   1
   0   7  -5 0.42775 1.11034   4
   0   7   5 3.30325 2.02940   1
   0   7   5 2.80536 1.65469   2
   5   0  -7 18.2294 3.77695   3
   5   0  -7 -0.2425 1.08961   4
  -7   5   0 1.22311 1.30151   1
  -7   5   0 5.48762 2.41323   2
   0  -7  -5 2.94262 2.18732   3
   5   0   7 3.95888 2.35688   1
   5   0   7 2.90335 1.36270   2
   7  -5   0 3.42626 2.20849   3
   7  -5   0 0.98308 0.92279   4
   7   5   0 2.54858 1.70801   1
   7   5   0 1.37622 1.17689   4
  -5   0   7 1.88832 1.14995   1
  -7  -5   0 1.80193 1.43354   2
  -7  -5   0 4.23477 2.35860   3
   0  -7  -5 0.55172 0.65581   4
  -5   0  -7 1.20061 1.34607   3
  -5   0  -7 1.56536 1.25270   4
  -5   0   7 -1.0009 1.12999   2
   7   0   1 0.31616 1.10808   3
   0  -1   7 4.51776 2.07078   1
   7   0   1 0.84976 1.19098   4
  -1   7   0 1.25696 1.36673   1
   0  -1  -7 2.19756 1.23778   3
   0  -1  -7 2.21713 1.34814   4
   0   1   7 1.12733 0.94524   2
   1  -7   0 1.15917 1.10307   2
   1  -7   0 1.15541 1.20705   3
   1   7   0 0.95054 1.33015   1
   1   7   0 2.85216 0.94423   4
   7   0  -1 2.09630 0.65327   1
   7   0  -1 3.20179 1.94438   3
   0  -1   7 5.85832 2.00882   2
   0   1  -7 3.04949 1.17089   3
   0   1  -7 7.29291 2.25355   4
  -1   7   0 2.45771 0.65728   4
   7   0  -1 1.22422 1.10815   4
   7   0   1 3.25569 1.33982   1
   0   1   7 0.45132 1.23858   1
  -7   0   1 2.04706 1.46825   2
  -1  -7   0 0.53806 1.04673   3
  -7   0  -1 1.25650 1.11192   2
  -7   0  -1 0.66553 0.94466   3
  -1  -7   0 0.32696 1.03247   2
  -1  -7  -2 711.191 18.2756   2
  -2   1   7 694.051 20.0327   2
  -7   2   1 709.904 14.1814   1
  -7   2   1 747.233 20.5749   2
  -2  -1  -7 732.403 18.1002   3
   7  -2   1 719.589 17.6204   4
   7   2  -1 714.935 14.0401   1
   1   7  -2 702.878 15.7844   4
   2  -1   7 709.789 21.5369   1
   2  -1   7 727.034 17.5062   2
   2   1  -7 736.615 18.8801   4
  -1  -7  -2 729.669 20.5001   3
   7  -2   1 712.531 16.8526   1
   7  -2   1 733.347 21.1696   3
  -2  -1  -7 717.698 18.4212   4
  -2   1   7 689.297 19.1096   1
  -1   7   2 735.621 20.9619   1
   7   2  -1 735.600 18.7094   4
   1   7  -2 735.603 20.9135   1
   1  -7   2 731.592 20.7093   2
   1  -7   2 705.538 17.6678   3
  -7  -2  -1 711.785 21.0074   3
   2   1  -7 716.199 16.2003   3
  -7  -2  -1 715.856 17.7676   2
   1  -7  -2 736.543 20.7115   3
  -2  -1   7 723.706 20.6346   2
  -1   7  -2 703.920 14.7425   4
   1   7   2 711.493 13.5344   4
   1  -7  -2 735.551 19.6485   2
   7   2   1 704.793 16.9190   1
   7   2   1 710.058 18.5225   4
   7  -2  -1 718.602 21.3619   3
   1   7   2 731.087 21.1801   1
  -7  -2   1 709.213 19.6208   2
  -7  -2   1 723.584 20.9066   3
   2  -1  -7 708.826 18.0030   4
  -1  -7   2 723.811 20.2966   2
  -1  -7   2 702.811 17.4398   3
  -2   1  -7 720.208 18.7511   4
  -7   2  -1 735.435 19.2501   2
  -1   7  -2 729.318 21.0646   1
  -2  -1   7 714.676 19.1922   1
   7  -2  -1 700.222 17.1243   4
  -2   1  -7 717.496 15.6366   3
   2   1   7 756.884 22.0502   1
   2  -1  -7 709.644 18.0021   3
   2   1   7 719.150 15.9525   2
  -4   1   7 33.8047 5.82830   2
  -7   4   1 39.3041 3.48733   1
  -7   4   1 36.7587 5.63042   2
  -4  -1  -7 30.1454 4.52558   3
  -7  -4  -1 40.0367 3.69162   2
  -1  -7  -4 32.5172 2.59136   4
   1  -7   4 36.6872 5.74713   2
   1  -7   4 36.3643 3.10526   3
   1   7  -4 52.7487 7.15536   1
   1   7  -4 42.0357 3.87364   4
  -4   1   7 40.4803 4.00318   1
  -1   7   4 34.9576 5.52171   1
  -1  -7  -4 34.7327 3.65003   2
  -1  -7  -4 39.3277 6.09799   3
  -1   7   4 40.2197 4.34777   2
   4   1  -7 41.0448 5.47826   4
   7   4  -1 48.8208 5.96416   4
   4  -1   7 37.0814 3.33512   2
  -7  -4  -1 30.1358 5.10755   3
  -4  -1  -7 33.6044 4.72296   4
   7  -4   1 36.1023 5.36453   2
   7  -4   1 42.3443 6.07986   3
   7  -4   1 37.1235 3.39194   4
   7   4  -1 37.9089 3.64004   1
   4  -1   7 35.8508 5.97984   1
   4   1  -7 35.0165 4.67541   3
   7  -4  -1 44.0570 6.41183   3
   4   1   7 41.7039 2.67972   2
  -4   1  -7 47.5157 4.10310   3
  -4   1  -7 39.3282 5.22973   4
   4   1   7 39.7821 6.36794   1
  -1  -7   4 30.9792 5.26515   2
  -1  -7   4 34.4186 3.00568   3
  -4  -1   7 42.1107 6.47530   2
   7  -4  -1 34.9593 3.25695   4
   1   7   4 32.9129 5.35316   1
   1   7   4 37.5854 2.80360   4
   4  -1  -7 40.7190 4.47982   3
   4  -1  -7 30.8711 4.26717   4
   1  -7  -4 36.2034 5.13216   2
   1  -7  -4 41.1383 6.21230   3
  -1   7  -4 37.7809 5.77201   1
  -7   4  -1 40.4372 5.70100   2
   7   4   1 37.7763 4.01061   1
  -1   7  -4 34.3347 4.05638   4
  -7   4  -1 32.8434 4.54886   1
  -4  -1   7 33.3182 3.50390   1
  -7  -4   1 30.5265 4.58691   2
  -7  -4   1 44.3202 6.34306   3
   7   4   1 32.9044 4.79075   4
   1   7  -6 270.484 11.2656   4
   1  -7   6 261.701 13.1476   2
  -1  -7  -6 252.923 13.1993   3
  -6   1   7 266.069 14.3569   2
  -7  -6  -1 267.384 13.4010   3
   7  -6   1 257.359 12.9870   3
   7  -6   1 260.411 9.12018   4
   7   6  -1 258.270 11.1155   1
   7   6  -1 252.188 11.1732   4
   1   7  -6 266.292 13.0886   1
   6   1  -7 258.559 11.9439   4
  -1  -7  -6 254.119 8.68685   4
   6   1  -7 263.191 11.8119   3
  -1   7   6 259.475 13.2637   1
  -7   6   1 269.956 11.3102   1
   7  -6   1 266.492 13.1378   2
  -6  -1  -7 256.846 12.0311   3
  -6  -1  -7 268.066 11.8244   4
  -7   6   1 287.544 13.8156   2
   6  -1   7 256.727 13.6898   1
  -7  -6  -1 248.089 9.88531   2
  -6   1  -7 281.353 11.9867   4
   1  -7  -6 271.944 13.6309   3
   7  -6  -1 248.027 13.1020   3
  -7  -6   1 258.001 11.5412   2
   6   1   7 261.213 11.7583   4
  -6  -1   7 258.955 13.7694   2
   1   7   6 265.182 13.8770   1
   7  -6  -1 254.067 8.41417   4
   6  -1  -7 276.255 11.7649   4
  -1   7  -6 237.182 12.9645   1
  -1   7  -6 255.690 10.6271   4
  -7   6  -1 278.768 13.2948   2
  -6   1  -7 255.997 11.2830   3
   7   6   1 264.352 12.0751   1
   6  -1  -7 252.447 12.3823   3
   6   1   7 269.961 14.0355   1
  -7   6  -1 260.188 11.7683   1
   7   6   1 265.428 11.1904   4
   1   7   6 264.918 10.3352   2
  -1  -7   6 243.798 13.0069   2
  -7  -6   1 266.845 12.9324   3
   7   1  -2 728.633 21.1226   3
   7  -1   2 737.290 20.9286   3
  -1  -2  -7 735.668 18.8267   3
   7  -1   2 719.466 18.2341   4
  -7  -1  -2 734.908 21.0821   3
  -1   2   7 734.761 20.4952   1
  -7   1   2 730.560 20.9036   2
  -1  -2  -7 736.959 18.1743   4
  -2  -7  -1 738.049 20.3367   3
  -7  -1  -2 716.793 16.7032   2
   2   7  -1 731.079 15.8491   4
   2   7  -1 731.001 20.8038   1
   1   2  -7 721.501 13.9199   3
   1   2  -7 742.587 19.0941   4
   7   1  -2 741.967 18.7613   4
   1  -2   7 755.536 21.7507   1
   1  -2   7 713.405 18.8086   2
  -2   7   1 731.602 20.7413   1
   2  -7   1 721.585 20.6611   2
  -2  -7  -1 716.025 18.5119   2
   7  -1   2 701.513 17.7393   1
  -2  -7   1 693.022 19.3784   2
  -7   1  -2 723.055 20.5621   3
   7   1   2 724.222 18.1609   1
   7   1   2 742.534 18.8767   4
   1  -2  -7 704.821 18.7873   3
  -1   2  -7 695.478 13.3787   3
  -1   2  -7 767.296 19.2850   4
  -7  -1   2 704.586 20.5601   2
  -1  -2   7 743.374 20.2711   2
   1   2   7 708.350 16.8873   2
   2  -7  -1 719.969 20.1267   2
   1  -2  -7 725.964 17.7924   4
   2  -7  -1 713.775 20.3278   3
  -1  -2   7 749.204 20.3946   1
   2   7   1 783.267 21.5490   1
   2   7   1 699.641 14.6756   4
  -2   7  -1 710.873 20.7025   1
  -2   7  -1 703.955 13.1169   4
  -7   1  -2 746.749 18.2394   2
   7  -1  -2 728.755 21.4591   3
   7  -1  -2 725.983 17.9757   4
   1   2   7 728.796 21.4864   1
  -7  -1   2 739.060 20.8501   3
   7   3  -2 396.872 9.77935   1
  -7  -3  -2 389.921 10.7953   2
  -2   7   3 405.906 15.0787   1
  -7   3   2 382.723 9.93725   1
  -7   3   2 393.905 15.2403   2
  -2  -7  -3 390.983 15.0844   3
   7   3  -2 425.112 14.0711   4
   2   7  -3 390.188 14.7376   1
   3   2  -7 385.275 11.0118   3
   7  -3   2 386.242 14.8168   3
   3   2  -7 387.396 13.7074   4
   2  -7   3 401.835 12.1968   3
  -3  -2  -7 403.080 13.8512   3
   7  -3   2 396.810 12.4402   4
  -3   2   7 385.036 13.4117   1
  -3   2   7 373.818 14.9825   2
  -2  -7  -3 395.855 12.2362   2
  -7  -3  -2 418.931 15.7471   3
   3  -2   7 391.827 15.8814   1
   3  -2   7 382.082 12.4560   2
   2   7  -3 383.949 12.0301   4
   7  -3   2 372.787 12.7883   1
   7  -3   2 417.736 14.1678   2
   2  -7   3 404.630 15.2618   2
  -3  -2  -7 402.919 13.1206   4
  -7   3  -2 414.195 14.0578   2
  -7  -3   2 392.963 14.7180   3
   2  -7  -3 382.722 14.2641   2
  -2   7  -3 385.379 15.4023   1
   2   7   3 385.578 15.3070   1
   2   7   3 396.232 10.2739   4
   3  -2  -7 386.293 13.8798   3
  -3  -2   7 392.966 13.2711   1
  -2  -7   3 404.802 15.0888   2
  -2  -7   3 392.414 11.9429   3
  -3  -2   7 400.674 15.4462   2
  -7  -3   2 396.706 14.5435   2
   3   2   7 385.631 15.8300   1
   2  -7  -3 380.831 14.9621   3
   3   2   7 380.166 9.13243   2
   7  -3  -2 341.901 11.1528   4
  -2   7  -3 375.451 10.5644   4
   3  -2  -7 401.129 12.7636   4
  -3   2  -7 385.690 10.5183   3
   7   3   2 385.422 13.1928   1
   7   3   2 381.581 13.1540   4
   7  -3  -2 362.500 15.2975   3
  -3   2  -7 412.360 13.7486   4
  -5   2   7 374.144 16.3395   2
  -5  -2  -7 355.721 14.0516   3
   7  -5   2 337.733 14.1507   2
  -7   5   2 356.829 15.2759   2
   7  -5   2 352.238 11.4996   4
   5   2  -7 337.544 12.2617   3
   2  -7   5 351.917 14.8316   2
  -7   5   2 359.540 11.8311   1
   7   5  -2 352.984 13.4290   4
   5   2  -7 354.134 13.8517   4
  -2  -7  -5 348.931 11.1774   2
  -2  -7  -5 346.087 15.1451   3
  -2  -7  -5 349.476 10.4470   4
  -5  -2  -7 352.266 13.1852   4
  -7  -5  -2 333.137 10.2008   2
  -7  -5  -2 365.750 15.5158   3
  -2   7   5 347.322 14.7768   1
  -2   7   5 364.668 14.0483   2
   5  -2   7 332.750 15.4577   1
   7   5  -2 354.785 11.7233   1
   2   7  -5 372.164 15.0810   1
   2   7  -5 366.190 13.0548   4
   7  -5   2 336.966 14.1866   3
  -5   2   7 347.652 12.0022   1
   5  -2   7 355.230 11.7557   2
  -5   2  -7 376.615 13.6296   4
  -5  -2   7 348.992 11.3801   1
  -2  -7   5 359.200 15.4752   2
   2  -7  -5 372.914 15.6795   3
   2   7   5 349.633 11.1953   2
  -5   2  -7 344.953 11.9626   3
   5   2   7 351.144 15.8162   1
  -5  -2   7 378.635 16.1287   2
  -7  -5   2 356.449 14.0977   2
   2   7   5 354.369 10.6371   4
  -2   7  -5 356.474 15.5955   1
  -2   7  -5 356.551 11.9188   4
   2   7   5 351.808 15.7624   1
   5   2   7 329.120 12.9518   4
   7  -5  -2 358.264 15.6552   3
   7  -5  -2 366.883 10.6950   4
   7   5   2 344.726 12.7909   4
  -7  -5   2 340.344 14.2401   3
  -7   5  -2 366.762 13.8864   1
   5  -2  -7 350.066 12.6355   4
   5  -2  -7 361.626 14.6641   3
   3   7   0 0.08954 0.72209   4
   3   7   0 7.04337 2.62059   1
   0  -3   7 0.00158 1.22657   1
  -3  -7   0 3.07705 1.66619   2
  -3   7   0 0.46493 1.19204   1
   7   0  -3 1.02926 1.30688   3
   7   0  -3 2.74019 1.48455   4
   7   0   3 11.0696 2.84567   1
   0  -3  -7 1.45796 1.18856   3
   7   0   3 0.30433 0.96802   4
  -7   0  -3 1.32637 0.86737   2
   0  -3   7 -0.2547 0.98390   2
  -7   0   3 -0.4922 1.14301   2
   0   3   7 1.41611 1.51256   1
   0   3  -7 1.59256 1.29529   4
   0  -3  -7 0.82547 1.01468   4
   3  -7   0 1.47918 1.45885   3
   0   3   7 3.03863 1.56970   2
   3  -7   0 3.12715 1.74301   2
  -3  -7   0 5.64473 2.39524   3
  -7  -2  -3 383.011 10.2779   2
  -7  -2  -3 386.532 15.1982   3
  -3   7   2 368.311 14.1311   1
  -7   2   3 434.719 11.3119   1
   3   7  -2 393.272 12.0206   4
   2   3  -7 370.390 8.77167   3
   3   7  -2 370.421 14.3804   1
   7  -2   3 426.999 13.4080   4
   7   2  -3 390.204 14.9151   3
  -2  -3  -7 389.756 14.0711   3
   3  -7   2 389.541 13.1634   3
  -2  -3  -7 386.106 12.6269   4
   7   2  -3 396.896 13.6892   4
   2  -3   7 390.094 15.6512   1
   7  -2   3 380.968 12.7694   2
   7  -2   3 381.738 14.4567   3
  -3  -7  -2 386.990 12.2162   2
  -7   2   3 412.423 15.7890   2
   3  -7   2 397.090 15.2005   2
   2   3  -7 406.215 13.8542   4
  -2   3   7 387.634 14.4206   2
   2  -3   7 379.222 13.5000   2
  -3  -7  -2 400.386 15.0811   3
  -2   3   7 390.612 14.4171   1
   7  -2  -3 398.255 15.7444   3
  -3  -7   2 390.475 13.0578   3
   3   7   2 394.943 15.3213   1
   2  -3  -7 386.235 14.2057   3
   3   7   2 406.751 11.0951   4
  -2  -3   7 404.579 14.2776   1
   7   2   3 412.798 13.6863   4
   2   3   7 413.163 16.3715   1
   2   3   7 388.655 10.5139   2
   3  -7  -2 381.761 14.6062   2
   3  -7  -2 380.168 14.9638   3
  -3   7  -2 390.703 9.79109   4
  -2  -3   7 407.787 15.4454   2
  -3  -7   2 385.593 14.3894   2
  -2   3  -7 369.126 8.22261   3
  -2   3  -7 403.731 13.7025   4
   7  -2  -3 402.770 12.5145   4
  -7   2  -3 413.182 14.7505   3
  -7  -2   3 413.668 15.5806   2
  -3   7  -2 392.215 15.0904   1
  -7  -2   3 388.471 14.5880   3
  -7   2  -3 369.785 12.5135   2
   3  -7   4 32.9821 5.86273   2
  -7   4   3 25.2772 2.81923   1
   3  -7   4 28.1923 3.08079   3
  -4  -3  -7 29.9463 4.59153   4
  -3   7   4 25.7614 4.85798   1
   7  -4   3 25.1492 4.47963   1
   3   7  -4 24.3982 4.59363   1
   3   7  -4 33.6077 4.84347   4
  -4   3   7 31.8153 4.65764   1
  -4   3   7 28.6309 5.34392   2
  -3  -7  -4 25.0318 2.78146   2
  -3  -7  -4 39.5978 6.47202   3
   7  -4   3 30.8852 5.17453   3
   7  -4   3 27.8781 4.14887   4
   7   4  -3 27.6108 2.88811   1
   7   4  -3 29.4319 4.98484   4
   4   3  -7 37.0416 3.42937   3
  -7  -4  -3 22.2388 4.72489   3
   7  -4   3 35.8950 5.32280   2
  -3   7   4 26.3502 4.57488   2
   4  -3   7 34.3589 4.71080   2
   4   3  -7 22.3483 4.01566   4
   4  -3   7 32.7614 6.02481   1
  -4  -3  -7 21.6308 4.40790   3
  -7   4   3 26.3236 5.18210   2
   7  -4  -3 25.3428 5.20752   3
  -7  -4   3 27.2739 4.94538   2
  -3  -7   4 32.5277 5.64273   2
  -3  -7   4 30.4136 3.28962   3
  -3   7  -4 28.9386 5.33509   1
  -4  -3   7 25.5134 4.06286   1
   7   4   3 21.8272 4.41968   1
   7   4   3 24.2367 4.11851   4
  -3   7  -4 34.4105 4.16091   4
   7  -4  -3 29.5206 3.68918   4
   3  -7  -4 30.1319 5.50589   3
   4   3   7 29.9381 5.96261   1
   3   7   4 24.6967 5.01742   1
  -4  -3   7 31.6045 5.66828   2
  -4   3  -7 26.0590 2.83653   3
  -4   3  -7 29.1671 4.76419   4
   4  -3  -7 33.8204 5.40722   3
   3   7   4 28.5720 3.62463   4
   3  -7   6 528.090 20.2825   1
  -7   6   3 525.076 16.1094   1
   3   7  -6 560.409 17.7203   4
  -3  -7  -6 562.101 20.3804   3
  -3  -7  -6 513.651 14.6651   4
   7  -6   3 514.191 18.7768   2
  -7  -6  -3 539.616 20.1870   3
   6  -3   7 509.456 19.9544   1
   6  -3   7 531.958 16.2050   2
   6   3  -7 515.616 16.5296   3
   6   3  -7 522.768 18.1147   4
   7   6  -3 515.933 17.4197   4
  -3   7   6 493.697 18.3145   1
  -6   3   7 506.170 20.1108   2
   7   6  -3 525.090 15.8683   1
  -3   7   6 526.650 18.5929   2
   3   7  -6 536.687 18.9229   1
   7  -6   3 521.049 18.1153   3
   7  -6   3 550.943 15.3923   4
  -6  -3  -7 545.710 17.4383   4
   3  -7   6 524.438 19.2658   2
  -6  -3  -7 523.693 18.9686   3
  -7   6   3 532.450 20.0566   2
   3  -7  -6 509.009 19.7020   3
  -7   6  -3 523.638 14.9705   4
  -6  -3   7 514.069 16.1705   3
  -6   3  -7 512.432 15.7727   3
  -3  -7   6 513.789 19.7452   2
  -3   7  -6 540.684 16.1879   4
  -6   3  -7 530.527 17.3337   4
   6  -3  -7 533.511 19.6906   3
  -3   7  -6 537.873 20.5238   1
  -7  -6   3 513.198 18.5896   2
  -7   6  -3 523.870 18.5938   1
   6   3   7 546.922 20.8397   1
   7   6   3 510.337 18.9333   1
   7   6   3 517.202 16.5887   4
  -7  -6   3 541.432 18.3661   3
   3   7   6 525.224 14.9844   4
   7  -6  -3 548.054 21.0112   3
   3   7   6 520.827 20.5096   1
   6   3   7 533.482 17.4902   4
  -6  -3   7 500.646 19.9454   2
  -1  -4  -7 31.8116 4.05479   4
   4   7  -1 33.4732 4.19049   4
  -1  -4  -7 38.4050 5.65342   3
  -1   4   7 34.8377 5.50914   1
  -7   1   4 42.8195 6.62700   2
  -4   7   1 40.0327 5.56020   1
   7  -1   4 58.1157 5.57646   1
   7   1  -4 51.0207 6.10723   4
   4  -7   1 35.5171 5.48425   2
   4   7  -1 41.5852 6.06944   1
  -1   4   7 37.0760 5.20004   2
   4  -7   1 34.6637 5.20193   3
   1   4  -7 45.2422 5.69592   4
   1  -4   7 41.2739 5.76614   2
  -7  -1  -4 32.8937 2.71876   2
  -4  -7  -1 35.0598 3.83202   2
   7  -1   4 48.8863 5.87153   4
   7   1  -4 41.9047 6.31722   3
  -7  -1  -4 42.9421 6.27798   3
   1  -4   7 39.7187 6.09914   1
  -4  -7  -1 41.9332 6.32070   3
  -7   1  -4 33.3588 5.01439   3
   7  -1  -4 37.1461 4.97560   4
  -4   7  -1 42.6373 6.10602   1
   7   1   4 39.6118 5.34863   4
  -4  -7   1 43.5859 5.73785   2
   4  -7  -1 31.3406 5.26361   2
   7   1   4 42.8498 5.95902   1
   7  -1  -4 33.8543 5.54418   3
  -4  -7   1 37.2983 5.19521   3
  -7  -1   4 32.1812 5.79115   2
   1  -4  -7 30.3040 4.83613   3
   4   7   1 35.7861 3.36947   4
   1   4   7 37.8134 6.06720   1
  -1  -4   7 29.4652 5.06320   1
  -1  -4   7 39.3549 5.93167   2
  -1   4  -7 39.6198 5.07474   4
  -4   7  -1 35.6901 2.44533   4
   4  -7  -1 36.4145 5.78196   3
   1   4   7 32.7281 3.43558   2
  -7   1  -4 31.9032 3.22462   2
   1  -4  -7 35.4017 3.44022   4
   4   7   1 52.5770 5.48928   1
   7  -3   4 23.2764 4.04818   2
   7  -3   4 25.2882 4.59650   3
  -3   4   7 31.2991 5.16507   2
   3  -4   7 31.5350 5.90006   1
   3  -4   7 22.0645 4.10721   2
  -4  -7  -3 25.6066 3.46661   2
  -4  -7  -3 21.9190 4.63757   3
   7  -3   4 27.9612 4.39955   4
  -3  -4  -7 24.9547 3.87082   4
  -3  -4  -7 23.8870 4.48118   3
  -7  -3  -4 35.0261 6.08521   3
   4  -7   3 32.5875 5.75750   2
   4  -7   3 40.2368 4.12030   3
  -7   3   4 20.8665 4.57613   2
   4   7  -3 36.3559 4.91949   4
   4   7  -3 38.6475 5.80768   1
  -4   7   3 26.4124 4.68181   1
  -4   7   3 27.3307 5.03829   2
   7  -3   4 23.4285 4.49912   1
   3   4  -7 27.4301 4.58433   4
   7   3  -4 27.8613 4.56142   4
  -3   4   7 28.0658 4.84556   1
   3  -4  -7 38.4871 4.53100   4
  -4   7  -3 30.4488 3.65434   4
  -4   7  -3 29.5990 5.38166   1
  -3  -4   7 41.7016 6.34512   2
   4   7   3 29.5926 5.73172   1
   3  -4  -7 30.9873 5.41360   3
  -3  -4   7 32.1157 5.02824   1
   7   3   4 25.7805 4.75853   1
   7   3   4 31.7611 4.68473   4
  -7  -3   4 38.3784 6.29717   2
   4  -7  -3 29.6877 5.24307   2
  -4  -7   3 30.7843 5.43120   2
  -4  -7   3 31.5933 4.54414   3
   3   4   7 25.6333 5.39711   1
   4   7   3 32.0127 4.05993   4
   7  -3  -4 28.5655 5.45720   3
   7  -3  -4 27.2112 3.78374   4
   4  -7  -3 28.2948 5.19267   3
  -7  -3   4 29.8143 4.91566   3
  -7   3  -4 31.1819 5.12423   3
  -3   4  -7 27.1814 4.22810   4
  -5   4   7 37.6537 5.34204   1
   4  -7   5 47.6106 7.29403   1
  -7  -5  -4 35.3044 6.12597   3
   4  -7   5 41.2627 6.42822   2
   4   7  -5 41.4038 5.95731   1
   7  -5   4 46.5270 6.78783   1
   7  -5   4 43.1162 6.12484   2
   7  -5   4 46.5274 5.70661   4
   5  -4   7 43.3223 7.17614   1
  -4   7   5 45.5285 6.99862   2
  -7   5   4 37.4447 6.26512   2
  -5  -4  -7 34.1352 5.73450   3
   7   5  -4 47.5878 6.52600   4
  -4   7   5 26.4477 4.95820   1
   5   4  -7 46.7043 4.49940   1
   5   4  -7 55.3339 7.38190   4
  -5   4   7 43.1586 7.06615   2
  -4  -7  -5 49.6138 7.46746   3
  -5  -4  -7 37.1372 5.38770   4
   4   7  -5 39.1434 5.70656   4
  -5  -4   7 40.7640 6.92526   2
   7  -5  -4 44.4258 7.52416   3
   5  -4  -7 38.2015 6.29621   3
   5   4   7 32.0924 6.26686   1
   7   5   4 41.1401 5.80349   4
   4   7   5 34.5326 4.45909   4
  -7  -5   4 45.0248 6.73583   2
   5   4   7 34.4746 5.11705   4
  -4  -7   5 39.3655 6.42498   2
   4  -7  -5 41.0324 6.79731   3
   7   5   4 30.3638 5.52795   1
   7  -5  -4 41.5806 3.53053   4
  -7   5  -4 30.8848 4.57278   4
   4   7   5 40.0244 7.07735   1
  -5  -4   7 41.4796 5.53630   3
  -4   7  -5 34.9900 6.25158   1
  -4   7  -5 38.1607 4.98748   4
   5  -4  -7 33.7105 4.46364   4
  -5   4  -7 40.9272 5.67534   4
   7   0   5 1.59429 1.79647   1
   5  -7   0 0.54450 1.58741   3
   5   7   0 2.97015 1.90119   1
   5   7   0 2.35625 1.32699   4
  -7   0   5 0.72827 1.57021   2
   7   0   5 4.03523 2.12729   4
   0   5   7 9.69669 2.65695   2
   5  -7   0 3.91897 2.29639   2
   7   0  -5 1.75607 1.66688   3
   7   0  -5 2.02321 1.51760   4
  -5   7   0 0.13841 1.03060   1
   0  -5  -7 -0.6836 1.19706   3
   0  -5   7 4.08125 2.30759   2
   0   5  -7 0.91182 1.33234   4
  -7   0  -5 0.62662 0.79992   2
  -7   0  -5 6.95946 2.63738   3
   0  -5  -7 5.66621 1.80855   4
  -5  -7   0 8.96325 2.58014   2
  -5  -7   0 3.29545 2.09963   3
   0   5   7 6.67193 2.96806   1
   0  -5   7 0.75704 1.49293   1
   7  -2   5 357.697 12.0547   2
   7  -2   5 353.356 14.8271   1
   5  -7   2 350.999 14.8557   2
  -7  -2  -5 338.194 14.6298   3
   2  -5   7 344.497 15.4530   1
   2  -5   7 349.857 14.1864   2
  -7   2   5 366.218 16.1647   2
  -5  -7  -2 366.609 11.5760   2
   7   2  -5 348.888 14.1389   3
   7   2  -5 355.993 13.8598   4
   5   7  -2 353.638 12.6155   4
  -5  -7  -2 373.225 15.5066   3
  -5   7   2 365.371 13.9078   1
  -2  -5  -7 353.217 14.8347   3
   7  -2   5 366.464 13.4001   4
  -2   5   7 351.291 13.9470   2
  -5   7   2 365.771 15.3397   2
   2   5  -7 351.692 14.1619   1
   2   5  -7 353.745 13.6196   4
  -2   5   7 351.090 14.7774   1
   5  -7  -2 351.115 15.2856   3
  -5  -7   2 359.526 14.2475   2
   7  -2  -5 356.797 12.5487   4
  -2  -5   7 331.781 13.7951   1
   5   7   2 364.239 15.1058   1
   5   7   2 343.399 11.7329   4
   7  -2  -5 348.113 15.1664   3
  -2  -5   7 363.878 15.4485   2
  -2   5  -7 359.721 13.1404   4
   7   2   5 352.267 14.8914   1
   7   2   5 342.303 13.3214   4
   2  -5  -7 346.156 14.8908   3
   2  -5  -7 341.668 10.7744   4
  -7  -2   5 349.791 15.6007   2
  -7   2  -5 362.353 13.9133   3
  -5   7  -2 353.115 10.0043   4
  -5   7  -2 350.828 14.6292   1
   2   5   7 329.615 15.4742   1
   5  -7  -2 350.863 15.0122   2
  -4   5   7 40.8961 6.24351   1
  -5   7   4 34.7434 5.42234   1
  -7   4   5 33.0063 5.88160   2
   5  -7   4 40.0521 6.32829   2
   5  -7   4 40.3909 4.23387   3
   5   7  -4 39.7844 5.69684   1
   4   5  -7 37.0389 5.58446   4
   7  -4   5 44.8173 6.68944   1
   4  -5   7 58.3390 5.81098   2
   4   5  -7 46.6893 4.92231   1
   5   7  -4 35.6422 5.13377   4
  -4  -5  -7 40.7990 5.39226   4
  -5  -7  -4 44.5790 6.91719   3
   4  -5   7 28.2816 5.54140   1
   7  -4   5 39.6109 5.36524   4
  -4  -5  -7 31.9725 5.55403   3
  -7  -4  -5 37.8532 6.29454   3
   7   4  -5 33.6548 5.58167   4
  -4   5   7 34.0756 5.90041   2
  -5   7   4 38.6102 6.25169   2
   4   5   7 37.2248 5.23608   4
   4  -5  -7 45.9559 7.17279   3
  -7   4  -5 41.4982 4.56376   3
  -5  -7   4 37.9023 6.38761   2
   7  -4  -5 43.9377 7.19221   3
   7  -4  -5 40.4062 3.89874   4
  -5   7  -4 39.2308 4.59170   4
   5  -7  -4 36.3869 6.41080   3
   4  -5  -7 39.4200 3.64898   4
  -7  -4   5 26.7581 4.66663   3
   5   7   4 42.2663 7.03796   1
  -4  -5   7 39.3719 6.49123   2
   4   5   7 31.6406 6.22749   1
  -5  -7   4 38.7764 5.26295   3
  -5   7  -4 41.0969 6.63463   1
  -7  -4   5 42.9881 6.86713   2
   7   4   5 32.3874 5.85209   1
   7   4   5 47.0494 6.06454   4
  -7   4  -5 34.5560 5.14264   4
   5   7   4 35.8919 4.68373   4
  -4   5  -7 32.5469 4.91598   4
  -7  -6  -5 688.083 24.0347   3
  -6   5   7 706.277 24.5357   2
   7  -6   5 674.290 21.9246   2
  -7   6   5 689.550 24.2181   2
  -6  -5  -7 687.237 23.6528   3
   6   5  -7 710.519 22.3155   4
  -5   7   6 664.509 21.1835   1
  -5   7   6 681.713 23.5254   2
   5   7  -6 674.102 21.2910   4
   6  -5   7 667.618 24.0474   1
   5  -7   6 712.740 23.1299   2
   5   7  -6 659.790 20.7228   1
   5  -7   6 671.225 24.0912   1
  -5  -7  -6 642.983 23.4212   3
   6  -5   7 705.027 21.4791   2
   7  -6   5 689.076 20.3581   3
   7   6  -5 656.296 21.2522   4
   7  -6   5 712.359 23.5506   1
   5   7   6 670.942 19.1835   4
  -6  -5   7 670.226 23.8898   2
   6   5   7 671.838 24.5203   1
   6   5   7 673.349 20.3401   4
   7  -6  -5 639.856 23.8724   3
  -7  -6   5 697.343 23.9300   2
  -7   6  -5 693.539 19.2487   4
  -5   7  -6 682.307 19.2520   4
   6  -5  -7 668.758 23.6666   3
   6  -5  -7 671.344 17.8837   4
   5  -7  -6 687.081 24.2033   3
   7   6   5 696.953 20.3628   4
  -7  -6   5 674.885 20.4596   3
  -7   6  -5 709.962 23.4617   1
   7   6   5 692.351 24.0980   1
   5   7   6 675.946 24.6485   1
  -5  -7   6 703.715 24.3049   2
  -5   7  -6 684.625 24.4675   1
  -6   5  -7 674.988 20.2188   4
  -6  -7  -1 259.087 10.3397   2
   1   6  -7 259.389 11.3927   4
  -1  -6  -7 253.284 13.0920   3
   7  -1   6 269.825 13.4023   1
   7  -1   6 269.896 11.8327   4
   7   1  -6 275.056 12.6586   3
   7   1  -6 259.230 11.9448   4
  -1   6   7 268.408 13.5343   1
  -1   6   7 270.012 11.6047   2
  -6   7   1 257.401 13.0504   2
  -7  -1  -6 287.942 13.1863   3
   1  -6   7 256.500 13.3061   1
   1  -6   7 277.190 13.3581   2
   1   6  -7 257.845 13.0622   1
   6   7  -1 248.532 10.7706   4
   6  -7   1 259.946 13.2167   2
   6  -7   1 260.134 12.5784   3
  -6  -7  -1 279.483 13.5061   3
  -1  -6  -7 263.192 9.55485   4
  -6   7   1 267.534 11.9979   1
  -7   1   6 263.134 14.2443   2
  -7  -1   6 256.824 13.8758   2
  -7   1  -6 270.381 12.1590   3
  -7   1  -6 254.582 11.4623   4
   1  -6  -7 266.454 9.12236   4
   1   6   7 246.454 13.5294   1
   7   1   6 272.567 13.6897   1
  -6  -7   1 255.288 11.5031   2
  -6  -7   1 247.111 12.1729   3
  -6   7  -1 271.888 12.4445   1
   1  -6  -7 257.463 13.0177   3
   7  -1  -6 255.776 12.9386   3
   7  -1  -6 264.423 11.5304   4
   7   1   6 253.036 11.6250   4
  -1  -6   7 248.783 12.7035   1
  -1  -6   7 272.554 13.4337   2
  -1   6  -7 259.767 11.1220   4
   6  -7  -1 244.968 13.0445   3
   6   7   1 253.417 12.4078   1
   6   7   1 270.652 10.7942   4
   1   6   7 260.790 10.0844   2
   6  -7  -1 264.441 13.1804   2
   3   6  -7 530.852 17.6558   4
  -6  -7  -3 481.008 19.1977   3
   6   7  -3 544.447 17.4279   1
   6  -7   3 520.094 19.1120   2
   3  -6   7 533.898 18.8814   2
   3   6  -7 505.263 18.0374   1
  -3   6   7 542.383 18.8182   2
  -3  -6  -7 521.235 19.4513   3
   3  -6   7 544.473 20.6101   1
  -7  -3  -6 524.963 19.4325   3
   7  -3   6 516.156 17.1397   4
   7   3  -6 523.526 17.7267   3
   7   3  -6 578.644 18.9724   4
  -6   7   3 534.021 19.7928   2
  -7   3   6 545.690 20.8343   2
  -3   6   7 545.280 19.0352   1
   6  -7   3 506.349 17.3454   3
   7  -3   6 525.223 19.7616   1
   7  -3   6 501.586 15.9553   2
   6   7  -3 515.614 17.0634   4
  -6   7   3 514.261 17.2227   1
   3  -6  -7 540.639 20.0099   3
  -7   3  -6 507.180 16.8544   4
  -3  -6   7 526.065 20.0221   2
  -3   6  -7 518.520 16.6244   4
   3   6   7 535.062 21.0002   1
  -6   7  -3 521.000 14.2784   4
   7   3   6 498.794 19.5342   1
   7   3   6 560.189 18.0689   4
  -7  -3   6 525.818 20.2259   2
  -7  -3   6 512.256 17.1897   3
  -6   7  -3 534.698 19.2540   1
   7  -3  -6 515.851 19.5424   3
  -6  -7   3 519.345 18.7296   2
   6  -7  -3 516.634 20.0465   3
  -7   3  -6 515.152 16.9872   3
   6   7   3 516.981 19.4100   1
   6   7   3 518.102 15.9514   4
   6   7  -5 659.221 20.8663   4
   6   7  -5 681.895 20.3194   1
   7  -5   6 646.128 20.6702   2
   7   5  -6 705.167 22.2506   4
  -6  -7  -5 667.381 23.9486   3
   7  -5   6 701.705 23.9882   1
   5   6  -7 649.981 21.2071   4
  -5  -6  -7 663.402 23.4697   3
  -5  -6  -7 666.390 19.3606   4
  -7  -5  -6 658.933 23.4914   3
   6  -7   5 709.144 24.2024   1
   6  -7   5 702.398 22.9690   2
   6  -7   5 658.223 26.8727   3
  -6   7   5 729.048 24.4145   2
  -7   5   6 656.728 23.9228   2
   5  -6   7 654.082 21.5989   2
   5   6  -7 667.770 20.3921   1
  -6   7   5 667.303 20.4875   1
   5  -6   7 714.264 24.7069   1
  -5   6   7 678.990 23.5429   2
  -5   6   7 651.799 20.6706   1
  -7   5  -6 665.916 19.8550   4
  -6  -7   5 655.997 19.1533   3
   7  -5  -6 668.898 24.1170   3
  -5  -6   7 688.493 24.1865   2
  -5   6  -7 684.211 20.1170   4
   6   7   5 669.646 19.4341   4
  -6   7  -5 708.609 19.0249   4
   5  -6  -7 681.583 23.9561   3
  -6   7  -5 721.014 24.1326   1
   7  -5  -6 688.459 19.5143   4
  -6  -7   5 671.944 23.3741   2
   6   7   5 664.107 24.1477   1
   5   6   7 701.721 25.1587   1
   5   6   7 659.663 19.5410   4
   6  -7  -5 731.958 24.8967   3
  -7  -5   6 707.879 24.4567   2
  -7  -5   6 674.315 20.0840   3
  -7   5  -6 673.831 19.7134   3
   7   5   6 668.569 23.8482   1
   7   5   6 685.352 20.7698   4
  -7  -7   0 9.93459 2.83714   2
  -7  -7   0 17.8264 4.65124   3
  -7   0  -7 1.16625 1.59021   3
  -7   0  -7 2.65708 1.75216   4
  -7   0   7 1.33775 2.28672   2
  -7   7   0 1.03967 1.25608   1
  -7   7   0 2.36558 2.00584   2
   0  -7  -7 6.01955 2.61172   3
   0  -7   7 0.79614 1.97756   1
   0  -7   7 -0.0588 1.46196   2
   0   7  -7 0.19409 1.33574   1
   0   7  -7 1.33936 1.27801   4
   0   7   7 -2.2635 1.26393   1
   0   7   7 4.40772 2.07344   2
   7  -7   0 1.28290 2.03424   2
   7  -7   0 -0.4211 1.46666   3
   7   0  -7 1.42347 1.53165   3
   7   0  -7 0.07989 1.30685   4
   7   0   7 5.45557 3.01432   1
   7   0   7 0.21325 1.17416   4
   7   7   0 4.55382 2.40086   1
   7   7   0 -1.0652 0.93038   4
  -7  -7  -2 670.861 23.1167   3
   2   7  -7 654.193 21.9163   1
   2   7  -7 625.503 19.6859   4
  -7  -2  -7 649.175 21.5981   3
   7   2  -7 636.394 20.3539   3
   7   2  -7 668.586 21.1692   4
   7  -7   2 659.627 21.7513   3
  -7   2   7 665.535 24.3481   2
   7   7  -2 650.407 19.6038   1
  -7   7   2 649.525 19.4576   1
  -7   7   2 664.020 22.8172   2
  -2  -7  -7 640.195 22.4459   3
  -2  -7  -7 645.829 16.7968   4
   2  -7   7 660.075 23.3698   1
   7  -2   7 672.295 23.2227   1
   7   7  -2 628.670 19.3900   4
  -2   7   7 666.547 22.6842   1
  -2   7   7 656.016 20.7345   2
   2  -7   7 650.188 22.2238   2
   7  -7   2 666.539 22.5516   2
   2  -7  -7 626.943 22.3344   3
  -7  -7   2 649.407 20.7745   2
  -7  -7   2 631.423 20.9281   3
   2   7   7 614.189 23.1901   1
   7  -7  -2 684.007 23.9538   3
  -2  -7   7 650.192 22.7101   2
  -7   2  -7 617.241 19.5785   4
   7  -2  -7 628.944 21.9628   3
   7  -2  -7 624.332 19.1017   4
  -2   7  -7 640.280 23.3095   1
  -7  -2   7 632.916 23.3157   2
  -7   2  -7 667.783 19.8718   3
   7   2   7 634.227 22.8722   1
   7   2   7 634.479 20.1402   4
  -7   7  -2 644.885 21.2296   1
  -2   7  -7 637.068 18.9719   4
   7   7   2 631.922 21.4019   1
   7   7   2 661.714 19.0615   4
  -7  -7  -4 1.41341 2.09428   3
   4  -7   7 0.19020 1.46335   1
   7   7  -4 0.47701 1.48929   4
  -7  -4  -7 0.77245 2.10888   3
   4   7  -7 7.18410 2.86913   4
  -4  -7  -7 0.47872 1.58069   3
   7  -4   7 1.49418 1.90326   1
   7  -4   7 -0.8023 1.20221   2
  -7   4   7 2.58960 2.41516   2
   7  -7   4 2.08465 2.00387   3
  -4   7   7 2.08966 1.88416   1
  -7   7   4 2.51730 1.83741   1
  -7   7   4 2.79583 2.37886   2
  -4   7   7 1.81239 1.89744   2
  -4  -7  -7 -0.5424 0.76277   4
   4   7  -7 -0.4727 1.14868   1
   4  -7   7 2.48442 2.18427   2
   7  -7   4 2.53001 2.10557   2
   7   4  -7 3.29774 2.40645   4
  -7  -4   7 3.86229 2.14051   3
  -7   7  -4 1.29229 1.25313   4
  -7  -7   4 0.61267 1.56877   2
  -4   7  -7 1.99054 1.99175   1
  -4  -7   7 3.26651 2.30513   2
  -7  -4   7 -0.1374 1.58585   2
   4   7   7 8.66678 3.80659   1
   4  -7  -7 1.29731 1.92620   3
   7  -7  -4 4.38998 2.65340   3
  -4   7  -7 14.7860 3.55387   4
  -7   7  -4 1.72312 2.03809   1
   7  -4  -7 2.15173 2.25092   3
   7  -4  -7 3.21491 1.78174   4
  -7   4  -7 4.01172 2.36065   3
  -7   4  -7 1.88067 1.99215   4
   4   7   7 5.50975 2.13603   4
   7   4   7 4.06895 2.55204   1
   7   4   7 -0.5354 1.39327   4
  -7  -7   4 -1.4591 1.27983   3
   7   7   4 3.02128 2.95224   1
   7   7   4 4.55993 2.14966   4
  -7  -7  -6 199.933 13.3421   3
   7   6  -7 222.199 12.5518   4
  -7  -6  -7 211.519 13.5361   3
   7  -7   6 215.664 12.6656   2
   7   7  -6 226.620 12.4411   4
  -7   6   7 193.651 13.1961   2
   7  -6   7 198.340 11.7455   2
   7  -7   6 226.420 13.9704   1
  -7   7   6 203.042 13.3732   2
  -6  -7  -7 232.373 14.1464   3
   7  -6   7 234.834 14.2567   1
   6  -7   7 213.309 12.5940   2
   6   7  -7 211.852 12.1299   4
  -6   7   7 207.048 11.4877   1
  -6   7   7 215.451 13.4890   2
   6  -7   7 204.068 13.4031   1
   6  -7  -7 209.965 13.5477   3
  -6   7  -7 215.116 13.7217   1
  -6   7  -7 217.366 10.9368   4
   6   7   7 231.097 14.8232   1
   6   7   7 208.735 10.8656   4
   7  -7  -6 192.153 13.3294   3
  -7   7  -6 222.400 10.8840   4
  -7  -6   7 216.199 13.8502   2
   7  -6  -7 209.216 13.7595   3
  -6  -7   7 216.774 13.7708   2
  -7   7  -6 202.183 13.3169   1
  -7  -7   6 203.548 13.2009   2
   7   6   7 184.160 13.1018   1
   7   6   7 215.135 11.4759   4
  -7   6  -7 214.017 11.0260   4
   7   7   6 199.718 13.5031   1
   7   7   6 221.032 11.3658   4
  -8   0   0 9549.47 137.213   2
  -8   0   0 9797.59 141.692   3
   0  -8   0 9783.92 139.360   2
   0  -8   0 9621.44 138.280   3
   0   0  -8 9466.26 132.111   3
   0   0  -8 9401.66 135.999   4
   0   0   8 9707.54 141.508   1
   0   8   0 9541.89 141.527   1
   0   8   0 9149.80 126.144   4
   8   0   0 9204.99 128.512   1
   8   0   0 9999.99 142.634   3
   8   0   0 9597.39 135.756   4
   8  -2   0 19.8056 3.51256   4
   8   2   0 25.5267 2.84122   1
   8   2   0 20.7571 3.82509   4
   2   0   8 28.2473 5.68591   1
   2   0   8 34.3959 3.54463   2
   8  -2   0 23.9980 5.00771   3
  -8  -2   0 23.4898 4.42590   2
  -8  -2   0 20.5280 4.41858   3
  -8   2   0 24.4067 2.65523   1
  -8   2   0 28.4428 5.16846   2
  -2   0  -8 22.7680 3.61115   3
  -2   0  -8 16.1627 3.58476   4
  -2   0   8 18.0736 4.04504   1
  -2   0   8 17.6103 4.06576   2
   0  -8  -2 27.7810 4.49202   2
   0  -8  -2 18.5224 4.19529   3
   0  -8   2 30.3527 5.15587   2
   0  -8   2 18.1778 3.47434   3
   0   8  -2 16.2806 4.18009   1
   0   8  -2 25.9386 3.22449   4
   0   8   2 18.5571 4.47143   1
   2   0  -8 20.9605 3.55958   3
   2   0  -8 16.6405 3.43043   4
   0  -8  -4 3393.03 62.0515   3
   0  -8   4 3309.43 61.3008   2
   0  -8   4 3164.20 51.7169   3
  -4   0   8 3276.27 55.9646   1
  -4   0   8 3310.37 61.8469   2
   0  -8  -4 3414.47 57.1530   2
   8   4   0 3288.94 54.0390   1
   8   4   0 3335.85 57.0773   4
   0   8  -4 3293.87 61.5005   1
   0   8  -4 3318.02 53.6179   4
   0   8   4 3365.00 61.7030   1
   4   0  -8 3384.26 56.7054   3
   4   0  -8 3405.11 57.7506   4
   4   0   8 3282.92 63.2146   1
   4   0   8 3164.56 50.9828   2
   8  -4   0 3281.97 61.8355   3
   8  -4   0 3335.98 53.5925   4
  -8  -4   0 3400.85 61.6698   3
  -8   4   0 3300.87 53.7441   1
  -8   4   0 3326.96 60.2677   2
  -4   0  -8 3307.83 55.2149   3
  -4   0  -8 3427.87 57.8333   4
  -8  -4   0 3299.86 55.8425   2
   0  -8  -6 3.19938 2.38185   3
   0   8  -6 4.82040 2.66561   1
  -8  -6   0 2.25277 2.02027   3
  -8   6   0 2.70103 1.47797   1
  -8   6   0 29.0350 5.83249   2
  -6   0  -8 6.80465 2.82094   3
   8   6   0 0.37332 1.23625   4
   0  -8   6 -0.0161 1.43171   2
   6   0   8 3.74448 2.50120   1
   8  -6   0 1.42811 1.87283   3
   0   8  -6 0.96591 1.29751   4
  -6   0  -8 19.3834 4.26133   4
  -6   0   8 3.66375 3.01348   2
   0   8   6 0.24749 1.85842   1
   0   8   6 0.13511 1.17982   2
   6   0  -8 0.80699 1.61783   3
   6   0  -8 1.94743 1.68630   4
   8  -6   0 7.81459 2.05946   4
  -8  -6   0 5.03907 2.17701   2
  -8  -1  -1 1.24845 1.13283   2
  -1  -8  -1 0.86996 1.34781   3
   8  -1   1 0.63538 1.78441   3
   8  -1   1 0.43718 0.92463   1
   1  -1   8 14.2033 3.61509   1
   1  -1   8 1.40494 1.35000   2
   8   1  -1 1.89111 1.35260   4
  -8  -1  -1 0.34003 1.07103   3
  -1  -1  -8 0.00229 1.13132   4
   1  -8   1 5.26744 2.32321   2
  -1   1   8 0.70076 1.43486   1
  -1   1   8 3.85838 1.86474   2
   1   1  -8 0.85527 1.12370   4
   1  -8   1 -0.5214 0.52933   3
   8  -1   1 1.89561 1.19628   4
   8   1  -1 1.22983 1.38824   3
  -1  -1  -8 4.31925 1.77326   3
  -1   8   1 0.23207 1.26947   1
  -8   1   1 1.63813 1.54008   2
  -1  -8  -1 0.13027 1.00419   2
   1   8  -1 1.29205 1.05279   4
   1   1  -8 1.15445 0.95953   3
   1   8  -1 0.69479 1.34745   1
  -1  -8   1 3.56084 2.03141   2
   1  -8  -1 2.20622 1.69064   2
   1  -8  -1 2.91174 1.74494   3
   1  -1  -8 -0.2984 1.06656   4
  -1   8  -1 0.96774 1.63605   1
  -1   1  -8 1.04963 1.01037   3
   1   1   8 2.12123 1.24388   2
   1  -1  -8 10.4494 2.84478   3
  -1   1  -8 2.50574 1.80317   4
   1   8   1 0.44659 1.47322   1
   1   8   1 2.45652 0.80167   4
   8  -1  -1 0.20078 1.32336   3
   8  -1  -1 1.11259 1.24075   4
  -1   8  -1 1.45618 0.76136   4
   8   1   1 1.42933 1.15045   1
   8   1   1 0.38179 1.24196   4
  -1  -1   8 0.22279 1.29079   2
  -8  -1   1 -0.1990 1.18405   2
  -8  -1   1 -0.9623 0.99826   3
  -8   1  -1 -0.0186 1.13722   2
  -8   1  -1 0.22084 1.20927   3
  -1  -8   1 -0.2072 0.58862   3
   1   1   8 2.31383 1.87199   1
  -1  -1   8 5.85424 2.46247   1
  -8   3   1 6.83894 2.82882   2
  -3   1   8 4.04794 2.29699   2
  -8   3   1 6.35824 1.56344   1
   3  -1   8 4.57952 1.84710   2
  -3  -1  -8 2.37102 1.54643   3
   8  -3   1 3.49971 1.58007   1
   8  -3   1 2.17888 1.81701   3
   8  -3   1 4.25746 1.81131   4
   8   3  -1 7.34454 2.49553   4
   1   8  -3 1.29373 1.19256   4
  -8  -3  -1 1.81643 1.84237   3
   3   1  -8 13.7678 2.89843   3
   1  -8   3 4.95649 2.51032   2
   3  -1   8 4.90747 2.41014   1
  -3   1   8 3.69318 1.90120   1
  -8  -3  -1 9.11089 2.35754   2
  -1  -8  -3 9.39498 3.32665   3
  -1  -8  -3 2.45576 1.48261   2
   1  -8   3 2.29345 1.35505   3
   1   8  -3 2.09704 1.97017   1
  -3  -1  -8 1.27016 1.29914   4
  -1   8   3 3.02255 2.18897   1
   3   1  -8 1.03260 1.30899   4
  -3  -1   8 5.27279 2.66078   2
  -3   1  -8 1.99968 1.70268   4
   3   1   8 5.88492 1.59747   2
  -8  -3   1 20.5078 4.20066   2
  -1   8  -3 2.81613 2.18138   1
  -1   8  -3 5.72904 1.62406   4
  -3  -1   8 3.50713 1.81754   1
   1  -8  -3 4.31623 2.09019   2
   3  -1  -8 2.67802 1.61471   3
   8  -3  -1 3.63621 2.25588   3
  -8  -3   1 2.77194 2.07817   3
   8   3   1 5.96195 2.18519   4
   8   3   1 11.2002 2.75848   1
  -1  -8   3 2.76250 1.99543   2
  -1  -8   3 9.92071 2.46287   3
   3  -1  -8 4.23284 1.82933   4
   8  -3  -1 7.04986 2.18290   4
   1   8   3 5.84418 2.74253   1
   3   1   8 11.7576 3.93530   1
   1  -8  -3 4.67508 2.45412   3
  -3   1  -8 2.85381 1.24747   3
  -8   3  -1 4.13028 1.60507   1
  -8   3  -1 3.46404 1.90362   2
  -1   8   5 47.8363 5.18940   2
  -8  -5  -1 37.9323 3.92657   2
   1   8  -5 45.7457 5.60073   4
  -5   1   8 43.1796 4.26178   1
   8  -5   1 51.0544 7.47479   3
   8   5  -1 48.6943 4.46767   1
  -8   5   1 38.9209 3.88354   1
  -8   5   1 34.4901 5.91009   2
  -5  -1  -8 46.3366 5.02000   3
   5   1  -8 45.8114 5.98274   3
  -8  -5  -1 55.5212 7.97380   3
   1  -8   5 42.5762 6.62021   2
   5   1  -8 45.3281 6.35514   4
   1   8  -5 47.7891 7.35297   1
  -1  -8  -5 42.5865 4.36319   2
   8  -5   1 43.3892 4.00155   4
   5  -1   8 42.2607 7.18738   1
  -1   8   5 45.8180 7.22442   1
   8   5  -1 40.7348 5.70454   4
  -5   1   8 45.4127 7.81604   2
  -5  -1  -8 34.9563 5.43418   4
  -1  -8  -5 35.7448 6.20378   3
  -8  -5   1 40.4509 5.69208   2
   1   8   5 43.2188 4.44049   2
   8  -5  -1 42.3791 3.87619   4
   5  -1  -8 38.4583 5.38608   4
   1  -8  -5 43.9390 7.09507   3
  -1   8  -5 53.5701 8.03369   1
  -5  -1   8 39.8416 3.99684   1
  -5  -1   8 49.2528 7.66767   2
  -5   1  -8 41.6844 4.32659   3
  -8   5  -1 46.9022 7.00570   2
  -1   8  -5 42.9349 4.11284   4
  -1  -8   5 41.4147 6.74909   2
   5   1   8 30.4021 5.90378   1
   8  -5  -1 38.1339 6.47036   3
   1   8   5 45.2145 7.12940   1
  -5   1  -8 44.2300 6.09432   4
   8   5   1 46.2262 4.97615   1
  -8  -5   1 33.2881 5.85693   3
   5  -1  -8 60.8313 5.90228   3
   8   5   1 49.3342 6.10160   4
  -8   5  -1 44.2286 4.65688   1
  -7  -1  -8 7.11181 2.83350   4
   8   7  -1 13.3472 3.63246   1
  -8   7   1 10.6293 3.14161   1
   7   1  -8 9.03717 3.13534   4
   1   8  -7 8.06059 3.46639   1
   1   8  -7 12.9403 3.42407   4
  -1  -8  -7 13.3387 4.43197   3
  -8  -7  -1 12.2738 4.12024   3
   8  -7   1 10.9062 3.70621   3
   7   1  -8 12.9025 3.86078   3
  -1   8   7 10.6651 3.92618   1
  -1   8   7 8.57328 3.06670   2
   8  -7   1 8.74220 3.45365   2
   1  -8   7 9.40708 3.54617   2
  -8   7   1 15.2246 4.31911   2
   8   7  -1 10.4687 3.24254   4
  -7   1   8 9.82570 4.11033   2
  -7  -1  -8 10.9765 3.49737   3
   7  -1   8 6.11736 3.04934   1
  -7   1  -8 5.15368 2.32365   4
  -8   7  -1 12.4576 3.51091   1
  -8   7  -1 16.9763 4.68572   2
  -8  -7   1 10.6185 3.63511   3
  -8  -7   1 8.00373 3.06117   2
   7  -1  -8 9.47897 3.11266   4
  -1   8  -7 12.1809 3.24146   4
   7   1   8 12.6928 3.58583   4
  -7  -1   8 11.6242 4.35846   2
   1  -8  -7 13.6800 4.25788   3
  -7   1  -8 11.0686 3.33462   3
   8   7   1 6.89163 2.72312   4
   8  -7  -1 14.2662 4.34852   3
   1   8   7 7.25394 3.28210   1
  -1   8  -7 8.13805 3.47642   1
   7   1   8 12.5317 4.48966   1
   8   7   1 15.5831 4.38263   1
   7  -1  -8 17.0640 4.66275   3
  -1  -8   7 8.31723 3.40747   2
  -2  -8   0 25.1390 4.47025   2
   8   0   2 22.3545 3.91495   4
   0  -2   8 14.4849 3.51389   2
   0  -2   8 22.7505 4.77348   1
  -8   0   2 27.6565 5.11778   2
   2   8   0 21.2413 2.88139   4
   0   2   8 23.7995 5.04808   1
   0   2   8 21.7588 4.00072   2
   2  -8   0 17.5104 4.07398   2
   8   0  -2 22.8192 3.97647   4
   8   0   2 25.7127 4.00165   1
   0   2  -8 24.2303 4.37630   4
  -8   0  -2 26.3044 5.22807   3
   8   0  -2 18.5402 4.35259   3
  -2   8   0 34.5252 5.87936   1
   0  -2  -8 22.9890 4.10865   3
   0  -2  -8 20.6790 3.77111   4
   2  -8   0 25.9058 4.66266   3
  -2  -8   0 18.1890 3.95404   3
  -8   0  -2 23.6366 3.91668   2
  -2  -2  -8 120.308 7.39362   3
   2   2  -8 130.060 7.84507   4
   2  -8   2 117.137 7.09456   3
   8  -2   2 125.938 6.98398   1
  -2   2   8 122.772 8.38900   2
   8  -2   2 119.390 7.05994   4
  -2   8   2 115.267 8.18305   1
  -2   2   8 127.029 8.37917   1
  -2  -8  -2 134.422 8.80678   3
  -8   2   2 113.142 8.35556   2
  -2  -2  -8 115.048 6.98864   4
   2  -2   8 107.995 8.42114   1
   2  -2   8 126.223 7.31306   2
  -8  -2  -2 121.178 6.51337   2
   8   2  -2 112.530 7.24401   4
   8  -2   2 117.263 8.45829   3
   2   8  -2 128.903 8.76728   1
   2  -8   2 119.734 8.43289   2
  -2  -8  -2 113.375 7.02311   2
  -8  -2  -2 136.670 9.14149   3
   2   8  -2 146.209 6.67017   4
  -2  -8   2 125.056 7.28049   3
  -2   2  -8 109.526 7.21717   4
  -8  -2   2 113.371 8.11677   2
   2  -2  -8 121.790 7.02034   4
  -8   2  -2 123.711 7.43574   2
   2   2   8 119.183 5.96279   2
   2  -8  -2 125.735 8.60929   3
  -2  -2   8 112.455 8.20716   2
  -2   2  -8 113.636 5.88798   3
   2   8   2 123.981 5.25558   4
   8  -2  -2 124.116 8.95106   3
  -2  -8   2 132.225 8.56245   2
  -8  -2   2 114.344 8.24344   3
   2   2   8 130.155 9.43443   1
  -2   8  -2 109.732 4.86390   4
   8  -2  -2 119.226 6.74673   4
   8   2   2 135.877 7.38091   1
   8   2   2 130.953 7.71270   4
  -2  -2   8 120.196 7.89740   1
   2  -8  -2 116.824 7.96162   2
  -8   2  -2 116.060 8.21398   3
   2   8   2 121.788 8.77289   1
   2  -2  -8 127.694 7.69772   3
  -2   8  -2 115.990 8.43334   1
   4   2  -8 2056.14 37.9278   3
   4  -2   8 2240.31 47.7848   1
  -4   2   8 2176.67 46.6052   2
  -4  -2  -8 2196.76 41.6166   4
  -2  -8  -4 2168.46 45.7976   3
   8  -4   2 2127.82 41.0802   1
  -2   8   4 2213.10 45.2307   1
  -2   8   4 2154.92 43.3000   2
  -8   4   2 2163.46 45.5966   2
  -2  -8  -4 2187.36 39.3978   2
   4  -2   8 2127.41 39.2615   2
  -8  -4  -2 2178.73 46.1161   3
   4   2  -8 2255.78 43.3258   4
  -4  -2  -8 2136.84 42.1504   3
   8  -4   2 2158.70 39.4286   4
   2  -8   4 2198.30 45.7037   2
   2   8  -4 2214.81 39.8253   4
   2  -8   4 2131.81 37.8463   3
   2   8  -4 2220.41 45.4220   1
  -4   2   8 2132.59 41.1519   1
   8   4  -2 2237.77 42.5046   4
   8  -4   2 2158.37 45.0315   3
   8  -4   2 2185.76 43.5314   2
   8  -4  -2 2136.27 46.8583   3
   4   2   8 2138.84 46.9369   1
  -2  -8   4 2205.14 45.5232   2
  -8  -4   2 2161.80 44.7039   3
   2   8   4 2094.56 35.3240   4
  -4   2  -8 2068.54 36.9533   3
  -4   2  -8 2187.18 42.2358   4
  -8  -4   2 2134.23 43.3146   2
   2   8   4 2206.76 46.7567   1
  -4  -2   8 2168.05 46.1011   2
  -2  -8   4 2122.62 37.6072   3
  -2   8  -4 2229.98 46.8300   1
  -8   4  -2 2101.69 40.8834   1
  -8   4  -2 2215.83 43.7237   2
  -4  -2   8 2187.39 40.6633   1
   8   4   2 2185.24 41.9839   1
   8   4   2 2203.67 41.6784   4
   4  -2  -8 2176.43 40.8138   4
   8  -4  -2 2139.42 37.8457   4
   4  -2  -8 2134.80 42.6545   3
   2  -8  -4 2167.04 43.4478   2
  -2   8  -4 2117.63 37.1303   4
   2  -8  -4 2123.46 45.5191   3
  -2   8   6 10.6338 3.57055   1
   8  -6   2 7.91407 2.94771   3
  -8  -6  -2 6.47427 2.90513   3
  -2   8   6 12.8691 3.47315   2
  -6  -2  -8 10.1366 3.19087   4
   6  -2   8 10.6167 4.04397   1
   6   2  -8 12.1881 3.09364   3
  -8   6   2 11.2052 2.81489   1
  -6   2   8 7.19898 3.27906   2
   2   8  -6 12.3442 3.91697   1
   2   8  -6 12.1840 3.28634   4
  -8   6   2 20.5297 5.08351   2
   8  -6   2 13.7512 2.83157   4
   2  -8   6 32.6773 6.20091   2
  -6  -2  -8 24.1660 5.18018   3
   8  -6   2 12.1490 3.68320   2
  -2  -8  -6 8.82015 3.48788   3
   6   2  -8 5.91912 2.64074   4
   8   6  -2 12.4417 3.67784   4
  -2   8  -6 7.89023 3.33694   1
   8  -6  -2 12.3760 4.07169   3
  -2   8  -6 14.2444 3.21239   4
  -6  -2   8 15.5697 4.64408   2
   6  -2  -8 12.9651 3.28033   4
   6   2   8 7.00878 3.24948   1
   6   2   8 7.04979 2.72937   4
  -6   2  -8 7.17462 2.48177   3
  -8  -6   2 10.9700 3.54756   2
  -8  -6   2 13.6579 3.81925   3
  -8   6  -2 11.7877 3.47569   1
   2  -8  -6 9.43978 3.56444   3
   6  -2  -8 10.6963 3.42829   3
  -2  -8   6 13.7169 4.36862   2
  -8   6  -2 10.6174 3.43409   2
   2   8   6 8.78704 3.37283   1
   8   6   2 15.7267 3.98624   1
   8   6   2 16.7008 3.83758   4
  -6   2  -8 11.9980 3.41507   4
   3   8  -1 5.11891 1.86408   4
   8  -1   3 3.81352 1.74664   4
  -3   8   1 15.3832 4.01379   1
   3   8  -1 5.59485 2.47149   1
   8   1  -3 0.32856 1.18716   4
  -8   1   3 3.52242 2.20346   2
  -3  -8  -1 3.38318 1.77724   2
  -3  -8  -1 5.26479 2.35149   3
  -1  -3  -8 1.59140 1.35595   4
  -8  -1  -3 3.44709 1.90159   3
   8  -1   3 2.43222 1.52603   1
  -1  -3  -8 2.13885 1.59033   3
   3  -8   1 3.10849 1.98764   2
   3  -8   1 1.70606 1.54397   3
   1   3  -8 1.19446 1.38180   4
   1  -3   8 8.66044 3.14446   1
   1  -3   8 5.73654 2.06761   2
  -1   3   8 1.79944 1.66347   2
   8   1  -3 3.38693 2.13928   3
  -1   3   8 3.29196 2.13521   1
  -8  -1  -3 4.07321 1.70147   2
   3   8   1 3.75709 1.26469   4
   8  -1  -3 1.78225 2.01236   3
   8   1   3 1.21684 1.37883   4
   1   3   8 7.00975 3.29307   1
   3  -8  -1 3.78267 2.18487   3
   3  -8  -1 3.98151 2.19497   2
   8  -1  -3 2.95026 1.60660   4
   8   1   3 2.80365 1.65938   1
  -8   1  -3 3.65509 2.16094   3
   1  -3  -8 5.36128 2.06809   4
  -3   8  -1 -0.3131 0.95195   1
  -3  -8   1 1.92154 1.48888   3
  -1   3  -8 7.75227 2.63779   4
  -1  -3   8 2.14752 1.95119   1
  -1  -3   8 3.96030 2.11569   2
  -8  -1   3 6.61053 2.79173   2
   3   8   1 2.66452 1.96022   1
  -3  -8   1 6.72901 2.62950   2
   1  -3  -8 2.58249 1.81594   3
   1   3   8 4.02059 1.71598   2
   8  -3   3 3.00375 1.85173   1
  -8   3   3 -0.3503 1.59439   2
  -3  -8  -3 1.83826 1.22503   2
  -3   8   3 1.65797 1.76879   1
  -3   8   3 2.78619 1.88429   2
   3  -8   3 4.09158 1.96071   3
  -3  -3  -8 12.7001 3.55220   3
  -3  -3  -8 6.50818 2.33664   4
   3   8  -3 0.46531 1.22980   4
   3  -3   8 0.34722 0.97416   2
   3   3  -8 0.80608 1.14431   4
   8  -3   3 1.52148 1.88687   3
   3   8  -3 13.5494 3.65631   1
   3  -8   3 -0.7164 1.34447   2
  -3  -8  -3 0.15322 1.61584   3
   3  -3   8 1.51998 1.74795   1
   8  -3   3 2.41069 1.41254   4
   8   3  -3 -0.3626 1.23739   4
  -3   3   8 -0.4351 1.08415   1
   8  -3   3 0.77825 0.75557   2
  -8  -3  -3 3.06827 2.11197   3
  -3   3   8 0.53660 1.87403   2
   3  -3  -8 0.89379 1.10633   4
   3   8   3 7.79356 3.34514   1
  -3  -3   8 -1.3928 1.14018   2
  -3   3  -8 5.57462 2.34894   4
  -8  -3   3 4.00532 2.33728   2
   3  -8  -3 0.91700 1.65669   3
  -3  -3   8 1.66572 1.69355   1
   8   3   3 0.06900 1.05827   4
  -3  -8   3 0.91954 1.54097   2
   3  -8  -3 2.66334 1.91518   2
   8  -3  -3 -0.1812 0.54034   4
  -8  -3   3 1.68543 1.92927   3
  -8   3  -3 0.89804 1.12776   2
  -8   3  -3 1.45349 1.51337   3
  -3  -8   3 2.97500 1.66450   3
   3   3   8 0.14368 1.54436   1
  -3   8  -3 1.84273 1.69112   1
  -3   8  -3 1.19079 1.06085   4
   8   3   3 2.30056 1.75759   1
   8  -3  -3 17.8454 4.66944   3
   3  -3  -8 3.72044 2.14635   3
   3   8   3 5.24956 1.70924   4
  -3   8   5 56.9032 7.83776   1
  -3  -8  -5 61.3817 6.86431   3
   8  -5   3 59.2456 6.06483   2
   3   8  -5 72.9277 6.03628   4
   8  -5   3 62.5954 6.46266   3
  -5   3   8 68.5012 5.76800   1
   8  -5   3 74.4394 6.58664   1
   5  -3   8 67.0155 5.58795   2
  -8   5   3 64.5094 7.03373   2
   5  -3   8 59.9537 8.55041   1
   8   5  -3 67.0513 7.74120   4
   3   8  -5 66.3152 6.55522   1
  -3   8   5 68.4307 6.58510   2
  -8  -5  -3 62.5505 6.87968   3
  -5  -3  -8 65.4274 6.49561   3
  -5  -3  -8 61.0694 5.57164   4
  -5   3   8 67.9183 7.47616   2
   5   3  -8 69.5826 6.44303   4
   3  -8   5 53.0857 7.70090   2
   5  -3  -8 60.7465 6.36255   3
  -3   8  -5 61.3806 4.91162   4
  -8  -5   3 58.0780 6.21727   2
   3  -8  -5 62.0552 6.86066   3
  -5   3  -8 64.7868 5.91385   4
   8  -5  -3 64.3886 4.62482   4
   5  -3  -8 64.2810 5.48561   4
  -3  -8   5 59.9496 8.20014   2
   5   3   8 71.3541 7.69653   1
   3   8   5 57.1921 4.49770   4
  -3   8  -5 74.0644 7.33601   1
   3   8   5 52.0289 7.84263   1
   8   5   3 62.4555 5.79869   4
  -5  -3   8 71.0251 7.44298   2
  -8  -5   3 75.4537 6.91110   3
  -8   5  -3 55.6728 5.86098   1
  -8   5  -3 66.2511 6.32692   2
  -5  -3   8 57.3943 5.09420   1
   8  -5  -3 69.5943 9.70761   3
  -7  -3  -8 2.52801 2.00901   4
   8  -7   3 17.0899 4.55428   3
   7  -3   8 3.14337 2.44926   1
   7   3  -8 0.60690 1.75342   4
  -3  -8  -7 3.71497 2.42409   3
   3   8  -7 2.70318 2.00645   4
  -3  -8  -7 0.50192 1.51079   4
   3  -8   7 4.39096 2.59034   1
   3  -8   7 9.17746 3.67079   2
   3   8  -7 3.41064 2.50293   1
  -3   8   7 6.34626 2.97293   1
  -3   8   7 6.30473 2.68338   2
  -7   3   8 1.28268 2.35600   2
  -7  -3  -8 1.87599 2.23127   3
   8   7  -3 5.05733 2.70653   4
  -8  -7  -3 5.62156 3.13600   3
  -8   7   3 2.62782 2.22231   2
   8  -7   3 3.61843 2.51316   2
   7   3   8 5.05178 2.81286   1
  -3  -8   7 5.18930 2.80699   2
  -3   8  -7 3.00762 1.93901   4
  -8   7  -3 7.88038 3.32216   1
  -8  -7   3 18.4052 4.58809   2
  -3   8  -7 1.13902 1.85507   1
   8  -7  -3 4.44913 2.76644   3
   8   7   3 6.03520 3.27326   1
   7  -3  -8 4.23412 2.32032   3
   7  -3  -8 2.76707 2.00775   4
  -7   3  -8 3.55787 2.24958   4
  -8  -7   3 2.92126 2.34294   3
   3   8   7 2.80257 2.54045   1
   8   7   3 6.26447 2.46196   4
   3  -8  -7 8.83455 3.73199   3
   7   3   8 7.64546 2.94395   4
  -7  -3   8 5.36109 3.03684   2
  -8   0  -4 3297.13 60.3288   3
   0  -4   8 3395.06 61.5966   1
   4   8   0 3248.41 60.2409   1
   0  -4   8 3323.24 60.2145   2
  -4   8   0 3407.15 60.7971   1
  -8   0  -4 3175.63 51.8987   2
   8   0  -4 3391.25 61.9516   3
  -8   0   4 3318.49 62.9521   2
  -4  -8   0 3305.50 57.1482   2
  -4  -8   0 3366.19 59.6462   3
   4  -8   0 3374.96 61.4109   2
   0  -4  -8 3382.38 59.7655   3
   0  -4  -8 3160.72 54.1358   4
   4   8   0 3355.64 53.3890   4
   0   4   8 3266.46 56.1386   2
   8   0   4 3419.87 57.7565   4
   4  -8   0 3343.22 60.3716   3
   8   0  -4 3320.82 57.0329   4
   0   4   8 3379.30 62.4086   1
   0   4  -8 3412.52 57.8102   4
  -8  -2  -4 2225.78 45.9897   3
  -8   2   4 2186.12 46.5905   2
  -2  -4  -8 2186.09 44.1640   3
   4  -8   2 2179.36 42.5550   3
   4  -8   2 2145.41 45.4341   2
   2  -4   8 2187.43 46.9654   1
   2  -4   8 2201.44 43.2935   2
   2   4  -8 2130.48 42.2317   4
  -4  -8  -2 2197.13 39.6850   2
  -4  -8  -2 2158.75 45.1804   3
   8  -2   4 2155.29 41.6054   4
   4   8  -2 2160.94 39.4300   4
   8   2  -4 2142.11 44.9163   3
  -2  -4  -8 2149.90 40.1226   4
   8  -2   4 2106.88 42.9397   1
  -4   8   2 2172.59 44.0509   1
  -2   4   8 2173.79 43.8658   2
   4   8  -2 2161.87 44.1548   1
  -2   4   8 2159.44 44.7266   1
   8   2  -4 2263.26 43.3185   4
  -2   4  -8 2203.81 42.2399   4
   8  -2  -4 2152.74 40.2413   4
   2  -4  -8 2160.74 38.8538   4
   8  -2  -4 2230.45 46.7880   3
  -8  -2   4 2129.46 44.1421   3
  -8   2  -4 2118.09 39.7872   2
   8   2   4 2301.36 42.8285   4
  -4   8  -2 2165.11 45.5048   1
   4  -8  -2 2145.84 45.2141   2
  -4  -8   2 2117.57 43.5392   2
  -2  -4   8 2207.33 43.9674   1
  -8   2  -4 2208.59 44.3633   3
   4  -8  -2 2256.36 46.4805   3
   2  -4  -8 2178.69 44.2982   3
   4   8   2 2153.22 37.6246   4
  -2  -4   8 2204.81 45.7781   2
  -8  -2   4 2170.23 46.1503   2
   4   8   2 2169.38 45.5132   1
   2   4   8 2214.50 47.5893   1
  -4  -4  -8 89.8677 6.53347   4
   4   4  -8 82.5469 6.95070   4
  -4   8   4 90.2815 7.83045   2
  -4   8   4 87.5968 7.41593   1
   8   4  -4 84.8473 7.09542   4
   4  -4   8 78.8900 7.85343   1
  -8  -4  -4 87.8174 8.02139   3
   8  -4   4 84.5518 7.28641   3
   8  -4   4 97.6483 6.68127   4
   8  -4   4 86.3410 7.29377   1
   4   8  -4 84.7667 7.32121   1
   4  -8   4 91.3675 6.22634   3
  -4   4   8 99.2327 7.51607   1
  -4  -4  -8 86.3171 7.39826   3
  -8   4   4 104.086 8.74366   2
   4  -8   4 84.2698 7.59947   2
   4   8  -4 86.3217 6.53033   4
  -4  -8  -4 76.1907 7.48502   3
  -4   4   8 92.4633 8.12607   2
  -4  -8   4 91.0100 6.27595   3
   4   8   4 93.7300 5.75494   4
  -8  -4   4 103.844 8.45423   2
   4   8   4 84.7195 8.11304   1
   4  -4  -8 89.9157 6.02620   4
  -4  -4   8 83.0444 7.89365   2
   8  -4  -4 96.2006 8.45937   3
  -4  -8   4 86.2360 7.78012   2
   4   4   8 91.0561 8.67091   1
  -4   4  -8 98.1966 7.23762   4
  -4   8  -4 86.1893 7.96842   1
  -4  -4   8 80.4710 6.44895   1
  -8  -4   4 87.9064 7.41988   3
  -8   4  -4 93.4986 7.35689   3
   4  -4  -8 88.4788 7.66508   3
   8   4   4 81.2344 6.65970   4
   8   4   4 91.1986 7.80249   1
  -4   8  -4 80.6689 5.23705   4
   4  -8  -4 112.207 8.99295   3
   8  -4  -4 102.959 6.16436   4
   8  -6   4 1705.31 39.7521   1
   6   4  -8 1717.38 38.9461   4
  -6   4   8 1760.79 42.7284   2
   6  -4   8 1707.54 42.7682   1
   6  -4   8 1682.60 36.1519   2
  -4   8   6 1777.75 40.9351   2
   4  -8   6 1682.51 40.3049   2
  -6  -4  -8 1662.30 36.6493   4
   4   8  -6 1709.24 39.1641   1
  -4  -8  -6 1650.05 41.4848   3
  -4   8   6 1702.85 39.6096   1
   8  -6   4 1734.94 39.9147   2
   8   6  -4 1725.43 38.3472   4
  -8  -6  -4 1738.65 42.3210   3
  -8   6   4 1721.14 42.4509   2
  -6  -4  -8 1665.89 40.2053   3
   4   8  -6 1718.97 37.2817   4
  -8   6  -4 1715.04 34.5863   4
  -8  -6   4 1700.26 40.4562   2
  -8  -6   4 1641.88 38.0921   3
   4   8   6 1690.72 33.6222   4
   8  -6  -4 1674.20 42.2323   3
  -6   4  -8 1660.25 36.8604   4
  -4  -8   6 1733.86 42.2373   2
   6   4   8 1658.85 36.8629   4
  -4   8  -6 1660.49 34.2492   4
   6  -4  -8 1715.95 34.6891   4
  -8   6  -4 1685.11 39.6837   1
   4   8   6 1749.45 43.2989   1
   8   6   4 1695.25 40.5207   1
  -6  -4   8 1766.98 42.7222   2
   6  -4  -8 1709.27 41.2620   3
   6   4   8 1656.07 42.5662   1
   8   6   4 1654.85 36.5135   4
   4  -8  -6 1709.10 42.2514   3
  -4   8  -6 1664.79 42.1969   1
  -8  -1  -5 45.9946 6.94260   3
   5   8  -1 45.5019 6.61278   1
   5  -8   1 57.0979 7.90968   2
  -1   5   8 45.7832 5.06614   2
   8  -1   5 44.1690 6.76871   1
   5   8  -1 44.6706 4.32066   4
  -1  -5  -8 38.0967 6.08271   3
   1   5  -8 42.3463 5.71933   4
  -5   8   1 41.1328 6.06936   1
  -8   1   5 26.4610 5.64002   2
  -5  -8  -1 44.2078 4.50839   2
   5  -8   1 47.2168 6.99752   3
   8   1  -5 41.1351 5.79359   4
   1  -5   8 42.7527 6.35653   2
   1  -5   8 41.9194 6.97724   1
  -5  -8  -1 48.5545 7.22794   3
   8  -1   5 37.7216 5.59084   4
   8   1  -5 46.0419 6.98593   3
  -1   5   8 53.2070 7.94446   1
   5  -8  -1 31.3189 5.59245   2
   8  -1  -5 50.7691 6.25970   4
  -8   1  -5 49.0482 6.93085   3
  -1   5  -8 43.1102 5.73574   4
   5   8   1 42.1477 3.99697   4
   8  -1  -5 37.7641 6.13214   3
   1   5   8 40.8096 7.31676   1
  -5  -8   1 47.0421 6.42534   2
  -5   8  -1 42.2723 6.57390   1
  -1  -5   8 39.3123 6.37756   2
   1  -5  -8 31.4532 5.56132   3
   1  -5  -8 40.8087 4.80369   4
   5  -8  -1 40.1107 6.51024   3
   8   1   5 50.9425 7.16865   1
   8   1   5 39.3766 5.49015   4
  -8  -1   5 41.8019 7.23870   2
  -5  -8   1 39.4266 5.95104   3
   5   8   1 62.6471 6.52393   1
  -1  -5   8 49.0853 7.28548   1
   1   5   8 36.2473 4.72394   2
   8  -3   5 75.5111 7.14646   1
  -8   3   5 53.3471 8.04372   2
   3  -5   8 49.6046 7.40311   1
   8   3  -5 60.6406 7.51778   4
   3  -5   8 67.1727 6.41499   2
  -5   8   3 78.7325 6.90887   1
  -5   8   3 49.4700 7.38690   2
  -3  -5  -8 69.9179 6.85575   3
  -3  -5  -8 61.4209 5.24043   4
   3   5  -8 62.0863 6.15816   1
  -3   5   8 59.2074 7.88720   2
  -8  -3  -5 58.4393 8.24595   3
   8  -3   5 61.1388 5.46388   2
   5   8  -3 71.1914 5.86629   4
   5   8  -3 48.4127 6.64846   1
  -5  -8  -3 68.2726 7.21648   3
   5  -8   3 70.8019 7.12917   2
   8  -3   5 54.4695 5.31054   4
   3   5  -8 62.3044 7.46580   4
   5  -8   3 63.2205 5.78847   3
  -3   5   8 84.7790 7.40897   1
  -3  -5   8 52.8950 7.68534   2
   8   3   5 72.2129 7.33100   1
   8   3   5 63.8116 5.92659   4
   3  -5  -8 69.6121 5.09507   4
   5   8   3 60.6130 4.90852   4
  -3   5  -8 60.7928 5.80105   4
  -5  -8   3 63.9588 6.48788   2
   5   8   3 75.0077 7.64903   1
  -8  -3   5 54.8376 7.77160   2
  -8  -3   5 62.3744 6.23367   3
   3   5   8 50.0418 8.02909   1
  -3  -5   8 57.7507 5.86400   1
  -8   3  -5 66.6498 6.26317   3
   5  -8  -3 61.1232 6.75492   3
  -5   8  -3 52.7162 7.64510   1
  -5  -8   3 64.3261 5.77081   3
   8  -3  -5 65.7684 7.07809   3
   3  -5  -8 76.6002 7.23764   3
   5  -8   5 1.47671 1.81389   2
   5  -5   8 2.99378 2.27836   1
  -5  -8  -5 7.94058 3.39713   3
  -5   5   8 13.4020 3.76263   1
  -5   5   8 1.11527 1.98123   2
   5   8  -5 -0.3086 1.00306   1
   8  -5   5 1.14698 1.38598   4
  -8  -5  -5 0.70130 1.81576   3
   5   5  -8 -0.0529 1.47910   1
   8  -5   5 1.48764 1.56336   2
   8   5  -5 1.49298 2.00030   4
  -5   8   5 2.06625 1.73805   1
  -5   8   5 0.34489 1.33728   2
  -5  -5  -8 1.54245 2.12163   3
   5   8  -5 1.50643 1.58686   4
   8  -5   5 -1.4054 1.30065   1
  -8   5   5 4.02471 2.83356   2
   5   5  -8 1.76767 1.80662   4
   5  -5   8 4.86915 2.39947   2
   8  -5   5 0.24224 1.54866   3
  -5  -5  -8 1.08869 1.26991   4
  -5  -5   8 -1.0808 1.35741   2
  -5   5  -8 4.63743 2.16111   4
  -8  -5   5 0.18156 1.01265   3
  -5  -8   5 -0.4507 1.22328   2
  -5   8  -5 3.87875 2.83131   1
  -5   8  -5 0.91239 1.43706   4
   8   5   5 -0.0861 1.96461   1
   8   5   5 3.99349 2.22761   4
  -8   5  -5 0.27362 1.36153   4
   5   5   8 0.94014 2.25984   1
   5  -5  -8 2.29150 1.44384   4
   5   5   8 2.26943 1.91729   4
   5   8   5 -0.7964 1.40615   1
  -8   5  -5 1.19332 1.78254   3
   5  -5  -8 0.05198 1.73323   3
   5   8   5 0.21977 1.10402   4
  -8  -5   5 1.97556 2.01622   2
   8  -5  -5 0.32103 1.40270   3
   5  -8  -5 8.81464 3.54208   3
   7  -5   8 4.26483 2.40052   2
   8  -7   5 1.85553 1.88368   1
   5   8  -7 11.6608 3.58893   1
   8  -7   5 4.15221 2.67684   2
  -5  -8  -7 1.26144 1.79842   3
   5   8  -7 4.16816 2.36364   4
   5  -8   7 10.5377 4.22267   1
   7  -5   8 2.98572 2.70390   1
   8  -7   5 4.47555 2.49513   3
   7   5  -8 1.49671 1.74268   4
  -7   5   8 4.13395 3.07158   2
  -5   8   7 6.48619 3.26722   2
  -7  -5  -8 13.4152 3.84422   4
  -8   7   5 7.13981 3.36907   2
  -7  -5  -8 4.66196 2.79611   3
  -5  -8  -7 2.35123 1.48977   4
  -8  -7  -5 4.59412 3.20103   3
   8   7  -5 2.93006 2.38296   4
  -5   8   7 3.84119 2.36817   1
   5  -8   7 3.69311 2.70093   2
   5  -8  -7 6.86016 2.99767   3
  -7  -5   8 1.41531 1.97011   2
  -8   7  -5 4.42565 2.57622   1
   5   8   7 10.7970 4.65638   1
   7   5   8 2.86140 2.65087   1
   7   5   8 10.2016 3.37172   4
  -5   8  -7 9.54860 3.90328   1
  -7   5  -8 5.50920 2.50048   4
  -8  -7   5 1.76974 2.00893   3
   7  -5  -8 4.68138 2.65024   3
  -8   7  -5 7.27280 2.46892   4
   8   7   5 4.34388 3.06307   1
   8   7   5 4.59945 2.11563   4
  -8  -7   5 6.73070 3.18878   2
   8  -7  -5 6.76695 3.32805   3
   5   8   7 3.76319 2.12403   4
  -5  -8   7 4.58720 2.86438   2
  -5   8  -7 5.99478 2.62356   4
   0   6   8 4.20281 2.62353   1
   6   8   0 3.94682 1.70827   4
  -6  -8   0 4.95394 2.23426   2
   6   8   0 -0.6917 1.59351   1
   8   0   6 2.80954 2.12730   4
   8   0  -6 0.78110 1.41537   3
   6  -8   0 1.70978 1.85698   3
   6  -8   0 1.33098 1.96297   2
   8   0   6 20.9191 5.28146   1
  -8   0   6 2.66230 2.36802   2
   0  -6   8 1.07491 1.71057   2
  -6   8   0 4.46853 2.29092   1
   0  -6  -8 0.97320 1.48442   3
   0  -6  -8 2.61346 1.46714   4
   0  -6   8 1.53120 1.92551   1
   0   6   8 4.49706 2.15586   2
   8   0  -6 14.7525 3.72462   4
  -6  -8   0 5.34436 2.60932   3
  -8   0  -6 3.66720 2.23531   3
  -6  -8  -2 11.2930 3.71584   3
  -8   2   6 10.5079 3.91843   2
   8  -2   6 27.3760 5.11802   4
  -2  -6  -8 12.3691 3.91622   3
  -2  -6  -8 11.8007 2.79288   4
  -6   8   2 13.2697 4.26980   2
   6  -8   2 11.1483 3.80178   2
   2   6  -8 11.5791 3.75585   1
   8   2  -6 12.9990 3.69091   3
  -2   6   8 11.9411 3.67903   1
   2  -6   8 9.26330 3.25888   2
   8  -2   6 12.8363 4.09445   1
   6  -8   2 13.2982 3.75104   3
  -6   8   2 12.9501 3.56097   1
  -8  -2  -6 9.88014 3.65126   3
   6   8  -2 12.3650 3.23785   4
   2   6  -8 14.7983 3.68268   4
   2  -6   8 12.6837 3.97604   1
  -8   2  -6 10.9812 3.20793   4
   8   2   6 22.7448 4.87862   4
   8  -2  -6 8.87730 2.90597   4
   8  -2  -6 10.2444 4.00154   3
   6   8   2 18.6821 4.70181   1
  -2  -6   8 9.08435 3.47056   1
  -6  -8   2 14.8919 4.12719   3
  -2  -6   8 10.0592 3.52277   2
  -8   2  -6 26.8608 4.95510   3
   2  -6  -8 17.4438 4.56038   3
   2  -6  -8 10.7123 2.58387   4
   2   6   8 12.2899 4.21093   1
  -6   8  -2 8.55628 3.12896   1
   6  -8  -2 10.1250 3.60434   3
   8   2   6 15.2925 4.17473   1
   6  -8  -2 10.6859 3.81816   2
  -6  -8   2 17.0726 4.30056   2
  -2   6  -8 20.9422 4.41673   4
   8  -4   6 1729.27 40.8833   1
   6  -8   4 1637.02 40.0591   2
   4   6  -8 1649.51 37.9948   4
   4  -6   8 1793.16 39.8692   2
   8  -4   6 1716.71 36.6247   2
   4  -6   8 1674.32 42.5632   1
  -6   8   4 1670.06 41.0692   2
  -4   6   8 1660.63 40.0290   2
   6   8  -4 1709.41 37.6437   1
   6   8  -4 1658.61 36.7511   4
  -8   4   6 1723.73 42.7548   2
  -6  -8  -4 1741.71 42.4422   3
  -4  -6  -8 1682.32 34.8733   4
   6  -8   4 1628.60 35.8321   3
   8  -4   6 1666.94 36.4601   4
   8   4  -6 1675.68 38.6224   4
  -4  -6  -8 1663.64 40.7489   3
  -8  -4  -6 1673.20 40.9935   3
  -4   6   8 1682.31 38.8254   1
  -6   8   4 1682.97 37.6597   1
  -8   4  -6 1764.84 37.4183   3
   4  -6  -8 1644.57 40.6758   3
   8   4   6 1682.47 41.1119   1
   6   8   4 1657.19 34.4060   4
  -4  -6   8 1696.38 42.0029   2
  -4   6  -8 1713.70 36.8355   4
  -8  -4   6 1689.74 41.9093   2
  -6  -8   4 1724.87 40.7506   2
  -6  -8   4 1684.85 36.4295   3
   6   8   4 1703.48 41.9448   1
  -8  -4   6 1718.49 37.9955   3
   8  -4  -6 1693.75 41.9499   3
   8  -4  -6 1683.63 34.0384   4
   8   4   6 1727.11 37.6501   4
   4   6   8 1638.46 42.9168   1
   6  -8  -4 1692.22 41.9053   3
  -6   8  -4 1644.98 40.5991   1
  -8   4  -6 1658.49 36.2089   4
  -6  -6  -8 6.49898 2.74894   4
  -6  -6  -8 6.84970 3.47626   3
   6   8  -6 5.64666 2.87738   1
  -8  -6  -6 5.21695 3.03242   3
   6  -6   8 5.66019 3.12834   1
   6  -6   8 10.1421 3.35961   2
   6   6  -8 4.87832 2.72122   4
   6  -8   6 5.44172 2.97680   2
   8  -6   6 3.02400 2.03621   2
   8  -6   6 9.58206 3.48237   1
   8   6  -6 7.36020 2.97188   4
  -6   6   8 7.38944 3.44329   2
   6   8  -6 5.38219 2.84887   4
  -8   6   6 7.30537 3.48267   2
  -6   8   6 9.66155 3.35906   1
  -6  -8  -6 2.94193 2.64627   3
   6  -8  -6 5.57177 2.97774   3
   6   6   8 12.4997 3.59226   4
  -6   8  -6 5.04933 3.12388   1
   8   6   6 1.52748 1.68532   4
   6   8   6 5.01097 3.37128   1
   8   6   6 4.48038 2.90176   1
  -8  -6   6 16.5663 4.85782   2
  -8   6  -6 10.3938 3.10881   4
  -6   8  -6 5.46484 2.22055   4
   6   6   8 6.05336 3.48088   1
  -6  -8   6 6.45406 3.02935   2
  -6  -6   8 2.13201 2.23881   2
   8  -6  -6 1.45316 1.85995   3
   6  -6  -8 3.77762 2.60789   3
   6   8   6 4.73085 2.51877   4
  -7  -8  -1 11.2528 3.98655   3
   8   1  -7 9.73103 3.37631   4
   1   7  -8 8.93885 3.07595   4
   8   1  -7 11.1559 3.41789   3
  -7   8   1 7.85831 2.97524   1
  -7   8   1 7.33472 3.19218   2
  -1  -7  -8 11.4978 3.66979   3
  -1  -7  -8 16.2892 3.07319   4
   7   8  -1 14.1501 4.08198   1
   1  -7   8 41.7699 7.45224   1
  -8  -1  -7 13.7335 4.11372   3
   7  -8   1 6.77359 3.05280   2
   1   7  -8 7.74848 3.37213   1
   8  -1   7 6.77050 2.84866   4
  -1   7   8 9.30957 3.62019   1
  -1   7   8 23.2005 4.82466   2
   8  -1   7 12.8999 4.22182   1
  -8   1   7 8.39830 4.02369   2
   1  -7   8 10.5499 3.64032   2
   7   8  -1 11.7076 3.30512   4
   7  -8   1 21.8833 5.22813   3
   1   7   8 7.79563 3.27016   1
  -7  -8   1 11.1488 3.33241   2
  -1  -7   8 9.81258 3.76901   2
   7   8   1 13.6195 3.15121   4
   8  -1  -7 11.6741 3.91022   3
   8  -1  -7 16.7567 3.91621   4
   1  -7  -8 13.2523 4.16988   3
  -7  -8   1 10.4935 3.54075   3
  -7   8  -1 10.5475 3.56510   1
  -1   7  -8 42.3765 7.66545   1
  -8  -1   7 8.21358 4.01154   2
  -8   1  -7 9.15860 3.27956   3
  -8   1  -7 10.6181 3.27067   4
   7   8   1 11.8447 4.08966   1
  -1   7  -8 14.0471 3.86597   4
  -1  -7   8 17.8273 4.70265   1
   7  -8  -1 7.66222 3.32985   3
   8   1   7 9.36454 3.49519   1
   8   1   7 11.4404 3.39748   4
   7  -8  -1 8.91515 3.48514   2
  -7   8   3 3.03819 2.04254   1
  -7   8   3 3.61488 2.64910   2
   8  -3   7 -1.1288 1.37805   1
   8   3  -7 4.89985 2.24685   3
  -3   7   8 6.08096 2.87636   2
   7  -8   3 1.29793 1.22369   3
   3  -7   8 3.75406 2.84495   1
   3  -7   8 0.86792 1.69710   2
   3   7  -8 2.91369 2.26931   1
   3   7  -8 2.11445 2.15886   4
  -7  -8  -3 14.3523 4.49329   3
   8   3  -7 0.47647 1.79965   4
   7  -8   3 6.08780 3.08672   2
  -3  -7  -8 5.20868 2.74798   3
   7   8  -3 2.58447 2.05322   1
   7   8  -3 2.14092 2.01034   4
  -3  -7  -8 1.23796 1.34841   4
  -3   7   8 2.75285 2.36215   1
  -8  -3  -7 6.72251 3.08580   3
  -8   3   7 3.70331 2.83217   2
   3  -7  -8 5.02049 2.76146   3
   7  -8  -3 4.59241 3.16105   3
   8  -3  -7 5.10917 2.27740   4
   7   8   3 7.24992 3.31097   1
  -7  -8   3 -0.2495 1.50862   2
  -3   7  -8 0.40918 2.04998   1
  -3   7  -8 4.07719 1.99930   4
   7   8   3 4.20983 2.11356   4
   8  -3  -7 5.81445 2.81356   3
  -8  -3   7 5.65526 3.00393   2
  -8  -3   7 3.73929 2.05714   3
  -7   8  -3 4.67713 2.80595   1
  -8   3  -7 4.41320 2.13486   4
   8   3   7 3.12736 2.46120   1
   3   7   8 -0.0369 1.63262   1
  -3  -7   8 4.27218 2.60503   2
   8   3   7 4.48593 2.45969   4
  -8   3  -7 3.34538 2.12274   3
  -8   5   7 3.57077 2.80745   2
  -8  -5  -7 2.99059 2.96868   3
   5  -7   8 1.83641 2.18287   1
   5  -7   8 5.40043 2.72763   2
   5   7  -8 6.42950 2.80050   1
   5   7  -8 1.51107 1.85049   4
   8  -5   7 5.28922 3.14459   1
   8  -5   7 4.22056 2.48656   2
  -7   8   5 3.64802 2.44115   1
   7  -8   5 3.96797 2.50439   2
   7   8  -5 6.60082 2.94566   4
  -5  -7  -8 3.24998 2.04909   4
  -5   7   8 4.09409 2.49506   2
  -5   7   8 3.82492 2.24792   1
  -7   8   5 4.16830 2.76450   2
  -5  -7  -8 4.92833 3.16718   3
   8   5  -7 8.40116 3.14596   4
  -7  -8  -5 1.98889 2.55372   3
   5   7   8 3.78797 2.15127   4
   8  -5  -7 5.78515 2.93650   3
   7   8   5 5.74485 2.28895   4
   5  -7  -8 17.3938 4.95554   3
   5   7   8 3.73808 3.02215   1
  -8   5  -7 10.6960 3.39341   4
  -5   7  -8 -0.0303 1.29097   4
   8   5   7 4.87865 3.01129   1
  -7  -8   5 10.3229 3.68491   2
  -7   8  -5 10.1449 3.84292   1
   7  -8  -5 1.52725 2.18191   3
   8   5   7 5.37874 2.65162   4
  -8  -5   7 4.85339 3.18027   2
   7   8   5 1.99969 2.47747   1
  -5  -7   8 5.25870 3.18332   2
  -8  -7  -7 0.67321 1.97984   3
   7   7  -8 -1.3872 1.37707   4
   8  -7   7 0.74982 1.93546   1
   8  -7   7 1.46988 2.03443   2
  -8   7   7 -1.0192 1.74980   2
  -7  -8  -7 1.58869 2.17231   3
   7  -8   7 7.79911 3.44137   2
  -7  -7  -8 0.44313 2.02592   3
  -7  -7  -8 7.13827 3.05643   4
   7   8  -7 3.57644 2.37521   4
   8   7  -7 4.47713 2.74620   4
  -7   7   8 0.34712 2.22695   2
   7  -7   8 3.19658 2.30328   2
   7  -7   8 4.67039 2.89837   1
  -7   8   7 2.99764 2.52704   2
   7  -8   7 0.52713 2.02272   1
   7  -8  -7 2.32183 2.49856   3
  -7  -8   7 -1.2937 1.65726   2
   7  -7  -8 1.12797 2.70025   3
  -7   8  -7 0.85523 1.56836   4
  -7   8  -7 -1.9049 1.52713   1
  -8  -7   7 0.52704 1.78610   2
   7   7   8 3.35540 2.84139   1
   7   7   8 10.1143 3.35277   4
  -7  -7   8 2.03078 2.16744   2
   7   8   7 1.15168 2.55065   1
   7   8   7 6.24709 2.51568   4
   8  -7  -7 6.08432 3.61727   3
  -8   7  -7 2.32295 2.17841   1
  -8   7  -7 -0.7618 1.20659   4
  -7   7  -8 10.5021 3.36583   4
   8   7   7 3.69059 3.03095   1
   8   7   7 1.32155 1.82345   4
  -8  -8   0 7565.54 120.574   3
  -8   0  -8 7497.25 116.420   3
  -8   0  -8 7545.39 115.928   4
  -8   0   8 7396.02 124.055   2
  -8   8   0 7464.32 115.625   1
  -8   8   0 7390.88 121.066   2
   0  -8  -8 7504.68 121.901   3
   0  -8   8 7621.49 121.895   2
   0   8  -8 7633.68 122.743   1
   0   8  -8 7362.18 113.643   4
   0   8   8 7408.26 122.721   1
   8  -8   0 7400.09 120.932   2
   8  -8   0 7349.58 121.105   3
   8   0  -8 7498.43 118.308   3
   8   0  -8 7440.20 115.428   4
   8   0   8 6932.88 121.219   1
   8   0   8 7448.04 115.968   4
   8   8   0 7397.79 116.452   1
   8   8   0 7272.08 113.121   4
  -8  -8  -2 4.42670 3.02444   3
   2   8  -8 3.11738 2.31845   1
   2   8  -8 6.10661 2.81069   4
  -8  -2  -8 8.11922 3.49263   3
  -8  -2  -8 3.37285 2.24347   4
   8   2  -8 2.54945 1.99493   4
   8  -8   2 0.52933 1.78132   3
   8   2  -8 0.30109 1.27874   3
  -8   2   8 1.51844 2.50816   2
   8  -2   8 1.91756 2.74539   1
  -8   8   2 2.55328 1.79738   1
  -8   8   2 2.39375 2.30926   2
  -2  -8  -8 0.92711 1.70790   3
   2  -8   8 0.65189 1.92644   1
   8   8  -2 5.00066 2.73571   4
   8  -8   2 -0.5956 1.88344   2
  -2   8   8 6.74588 3.34621   1
  -2   8   8 0.37743 1.08935   2
   2  -8   8 2.42005 2.48770   2
  -8   2  -8 2.13751 2.05292   4
   2  -8  -8 7.90871 3.49035   3
  -8  -8   2 3.35026 2.29706   2
  -8  -8   2 5.01204 2.75803   3
   2   8   8 7.09581 3.25103   1
   8  -8  -2 -0.3896 1.76113   3
  -2  -8   8 1.16313 2.22737   2
  -8   2  -8 5.26921 2.69125   3
   8  -2  -8 4.12427 2.31343   3
   8  -2  -8 -0.4079 1.46800   4
  -8   8  -2 2.01252 1.94448   1
  -2   8  -8 2.35875 1.68569   4
  -8  -2   8 3.45549 2.57327   2
   8   2   8 6.38195 3.33556   1
   8   2   8 -0.7084 1.30737   4
  -2   8  -8 3.38860 2.77838   1
   8   8   2 9.82961 3.88127   1
   8   8   2 23.6133 4.38276   4
  -8  -8  -4 1761.38 45.3945   3
   8  -4   8 1834.97 45.9708   1
   8   4  -8 1771.67 41.9413   4
  -8  -4  -8 1858.74 44.6515   3
   8  -8   4 1769.66 40.9988   3
   8   8  -4 1795.45 40.6950   4
  -8   4   8 1826.75 47.4747   2
   4  -8   8 1833.34 43.9150   2
  -8   8   4 1695.11 44.7232   2
  -4  -8  -8 1814.85 45.2874   3
  -4  -8  -8 1778.16 36.5055   4
   4   8  -8 1803.37 42.2738   1
   8  -8   4 1831.86 44.2831   2
   4  -8   8 1788.49 46.1973   1
  -4   8   8 1828.67 43.2991   1
  -4   8   8 1820.18 43.3242   2
   4   8  -8 1776.36 40.6224   4
  -4   8  -8 1782.26 38.6854   4
  -8   8  -4 1816.05 43.8434   1
  -4  -8   8 1750.96 45.3629   2
   4  -8  -8 1794.54 45.5192   3
   4   8   8 1848.46 47.6843   1
   8  -8  -4 1790.79 46.5002   3
  -4   8  -8 1853.73 47.0825   1
  -8  -4   8 1777.54 46.0009   2
   8  -4  -8 1705.69 43.8765   3
   8  -4  -8 1763.91 37.4366   4
  -8  -8   4 1772.83 43.2480   2
   8   4   8 1795.56 46.2196   1
   8   4   8 1737.78 40.2266   4
  -8   4  -8 1784.96 39.9177   4
   8   8   4 1811.87 44.9410   1
   8   8   4 1806.19 38.9958   4
  -8  -8  -6 -0.0070 2.15393   3
   8  -8   6 0.80283 1.80673   2
  -8  -6  -8 5.03400 3.23626   3
   8  -6   8 0.96600 2.00545   1
   8  -6   8 -0.3999 1.22998   2
  -8   6   8 -0.2217 2.02836   2
   6   8  -8 2.96075 1.98400   4
  -8   8   6 1.74324 2.33345   2
  -6  -8  -8 2.22523 2.34617   3
  -6  -8  -8 3.25483 2.13413   4
   8   6  -8 8.65389 3.47311   4
   8   8  -6 0.93152 2.11175   4
   6  -8   8 6.13876 2.96474   2
  -6   8   8 3.95388 2.92283   2
   6  -8   8 0.26221 2.08748   1
   6  -8  -8 -1.7001 1.58738   3
  -6   8  -8 1.61273 1.54323   4
  -6   8  -8 -0.8036 2.05325   1
   6   8   8 2.03882 2.47970   1
   6   8   8 1.79896 1.91045   4
   8  -8  -6 0.53094 2.37868   3
  -8  -8   6 1.85545 2.36216   2
   8  -6  -8 0.74970 2.01211   3
  -8  -6   8 -3.0421 1.37674   2
  -8   6  -8 -1.6664 1.21286   4
  -6  -8   8 1.23743 2.28254   2
   8   6   8 3.29598 3.04142   1
   8   6   8 4.07474 2.50713   4
  -8   8  -6 23.2901 5.83254   1
   8   8   6 3.55334 3.13910   1
   8   8   6 1.09605 1.89540   4
  -8  -8  -8 5421.62 102.127   3
   8  -8   8 5440.49 97.0728   2
   8   8  -8 5397.42 95.8592   4
   8  -8   8 5592.93 103.238   1
  -8   8   8 5505.69 102.736   2
   8  -8  -8 5452.93 103.534   3
  -8   8  -8 5279.93 90.7990   4
  -8  -8   8 5627.81 103.136   2
  -8   8  -8 5386.81 102.507   1
   8   8   8 5628.06 104.678   1
   8   8   8 5565.82 92.8518   4
   9   1   0 2.67355 1.75975   4
   1   0   9 2.87434 1.71588   2
   9  -1   0 1.17164 1.73056   3
   9  -1   0 2.17207 1.60405   4
  -9  -1   0 0.80324 1.47706   2
  -9  -1   0 7.32442 3.24041   3
  -9   1   0 1.51532 1.82876   2
  -9   1   0 2.86753 2.03525   3
  -1   0  -9 0.01421 1.06644   3
  -1   0  -9 1.89908 1.57372   4
  -1   0   9 -0.2643 1.45991   1
  -1   0   9 1.98566 1.75397   2
   0  -9  -1 -0.9747 1.00866   2
   0  -9  -1 2.37489 1.88824   3
   0  -9   1 14.1375 3.95770   2
   0  -9   1 -0.1446 0.70950   3
   0   9  -1 1.03874 2.05785   1
   0   9   1 0.25233 1.22377   1
   1   0  -9 3.21233 1.64473   3
   1   0  -9 1.90878 1.50757   4
   1   0   9 3.15994 2.10891   1
   9   3   0 1.46282 1.44185   4
   0  -9  -3 1.15069 1.40164   2
   0  -9  -3 -0.3512 1.39614   3
   9  -3   0 1.29603 1.75122   3
   9  -3   0 0.12628 1.08030   4
   0   9  -3 2.36573 1.81004   1
   0   9  -3 0.27767 0.96888   4
   3   0  -9 2.52825 1.86453   3
   3   0  -9 2.60853 1.85633   4
   3   0   9 0.32096 1.65851   1
   3   0   9 1.71230 1.22665   2
  -3   0  -9 0.65706 1.14304   3
  -3   0  -9 0.87132 1.47326   4
   0  -9   3 0.21077 1.55941   2
   0  -9   3 0.59072 1.15439   3
  -9   3   0 2.79484 1.95285   2
  -3   0   9 0.81439 1.31249   1
  -3   0   9 -0.6035 1.50596   2
  -9  -3   0 1.23440 1.87382   3
  -9  -3   0 0.72337 1.40461   2
   0   9   5 4.34762 2.87095   1
   0  -9   5 4.84845 2.50701   2
   9   5   0 3.13438 2.13428   4
  -9   5   0 1.73447 1.79413   2
   0   9  -5 5.21951 2.49581   1
   0   9  -5 3.12458 1.67662   4
  -5   0   9 2.48307 2.52016   2
   0  -9  -5 3.51980 1.94346   2
  -5   0  -9 -0.2426 1.10353   4
   0  -9  -5 4.26191 2.62690   3
  -5   0  -9 0.87324 1.29031   3
   0   9   5 1.60721 1.74645   2
   5   0  -9 8.67761 2.89330   3
   5   0  -9 0.23565 1.75644   4
   5   0   9 1.39357 2.23038   1
   9  -5   0 0.07522 1.65955   3
   9  -5   0 20.1485 3.66770   4
  -9  -5   0 -0.3467 1.40488   3
  -9  -5   0 3.62914 1.83615   2
  -9  -7   0 12.3984 4.17572   3
   0   9   7 2.35314 2.88781   2
   0  -9  -7 2.44774 2.18982   3
   0  -9   7 1.16363 2.25854   2
   0   9  -7 0.08868 2.04086   1
  -7   0   9 3.93919 3.06393   2
   9   7   0 1.41973 1.74677   4
  -9   7   0 1.27377 2.12819   2
   7   0  -9 1.45591 2.10703   3
   7   0  -9 2.29065 2.02603   4
   7   0   9 4.35597 2.95673   1
   9  -7   0 -0.6714 1.58294   3
  -7   0  -9 -0.8328 1.27009   3
  -7   0  -9 2.45926 1.93549   4
   0   9  -7 1.49930 1.42419   4
   0   9   7 -0.4305 1.71657   1
  -9   7   0 1.39132 1.55533   1
   9   0  -1 -0.3467 1.37194   3
   1   9   0 2.27483 2.11048   1
   0   1  -9 1.37449 1.64448   4
   0  -1  -9 1.70287 1.65411   4
  -9   0   1 6.50778 2.67296   2
   9   0   1 3.49225 1.49314   1
   1  -9   0 0.33220 1.41457   3
   0  -1  -9 11.5275 2.94042   3
   0  -1   9 0.31998 1.24699   2
   0  -1   9 1.14372 1.54784   1
  -1   9   0 0.81826 1.44743   1
   9   0   1 0.38577 1.13560   4
  -9   0   1 -0.7139 1.35324   3
  -1  -9   0 3.09087 1.95552   2
  -1  -9   0 0.93554 1.53287   3
   9   0  -1 -0.4802 0.96188   4
  -9   0  -1 1.40344 1.60298   2
  -9   0  -1 1.95699 1.86596   3
   0   1   9 1.90630 1.91524   1
   0   1   9 1.36636 1.53274   2
   1  -9   0 0.04068 1.05918   2
   9  -2   1 482.706 15.5538   4
  -2   1   9 457.363 17.2444   2
  -9  -2  -1 487.126 18.9126   3
  -1   9   2 497.142 18.9861   1
   9  -2   1 472.574 13.7711   1
  -2  -1  -9 487.717 15.2334   3
  -2  -1  -9 468.837 15.9311   4
   2   1  -9 485.145 16.4511   4
   9  -2   1 487.791 18.8578   3
  -1  -9  -2 476.253 16.4804   2
   1  -9   2 474.369 15.8484   3
   1   9  -2 520.102 19.1961   1
   1   9  -2 474.283 12.7410   4
   2  -1   9 482.142 15.4069   2
  -9  -2  -1 480.506 15.8115   2
  -1  -9  -2 481.080 18.1444   3
  -9   2   1 542.472 18.7118   2
   1  -9   2 506.033 18.5918   2
  -2   1   9 470.409 17.3908   1
   2  -1   9 490.809 19.3293   1
   2   1   9 487.871 14.0959   2
  -1   9  -2 498.565 18.9573   1
  -2   1  -9 517.822 16.9734   4
  -9  -2   1 468.080 18.4652   3
   1  -9  -2 481.334 17.3555   2
   1  -9  -2 484.555 18.0770   3
  -9  -2   1 491.463 17.5299   2
   9   2   1 456.148 14.6417   1
   9   2   1 455.402 15.9938   4
   2  -1  -9 476.294 15.4326   3
   2  -1  -9 488.490 16.0376   4
   2   1   9 504.618 19.6612   1
  -2  -1   9 456.460 17.5191   2
  -2  -1   9 479.656 17.2476   1
   9  -2  -1 497.870 15.4664   4
  -9   2  -1 500.843 17.1706   2
   9  -2  -1 478.740 19.1278   3
  -1  -9   2 478.848 15.6416   3
  -1  -9   2 500.339 18.0922   2
  -1   9   4 53.0469 7.75640   1
   9  -4   1 43.0112 6.80638   3
  -9  -4  -1 43.1148 4.39477   2
  -9  -4  -1 47.9609 7.63001   3
   1  -9   4 42.4839 6.87645   2
   4  -1   9 59.9943 8.98047   1
   4   1  -9 52.0861 4.81045   3
  -1   9   4 51.7770 5.49538   2
  -1  -9  -4 60.5696 8.57236   3
   1   9  -4 42.5796 6.93614   1
   1   9  -4 38.5509 4.76818   4
  -4  -1  -9 43.7791 4.75865   3
  -9   4   1 54.4437 7.80346   2
  -4   1   9 41.4438 6.76013   2
  -1  -9  -4 46.6418 4.91946   2
  -4  -1  -9 49.4760 6.41719   4
  -4   1   9 46.6182 5.07130   1
   4   1  -9 41.5889 6.05482   4
   9   4  -1 58.1006 7.35614   4
   9  -4   1 44.8824 5.57238   4
  -9   4  -1 50.3222 4.70334   1
  -9  -4   1 48.2996 7.63192   3
  -9  -4   1 49.4730 5.37609   2
   1  -9  -4 46.4987 6.60409   2
  -4  -1   9 50.3295 5.07183   1
  -4  -1   9 58.1392 8.04113   2
  -4   1  -9 44.8702 7.23790   3
   1  -9  -4 53.8070 7.93626   3
  -9   4  -1 41.7000 6.40214   2
   4   1   9 36.9661 6.84762   1
   9   4   1 50.2363 4.85099   1
   9   4   1 48.7970 6.48392   4
  -1  -9   4 36.0034 6.15177   2
  -1   9  -4 44.5862 6.98290   1
   9  -4  -1 51.6482 8.17891   3
   9  -4  -1 52.5179 4.58828   4
   4  -1  -9 44.9180 6.19714   3
   4  -1  -9 50.9054 6.41722   4
  -1   9  -4 41.4384 3.90851   4
   1   9   4 48.8712 7.63390   1
  -4   1  -9 42.4321 5.95218   4
  -9  -6  -1 494.819 20.3094   3
   6  -1   9 480.275 20.8775   1
   6   1  -9 474.209 16.8526   3
  -1   9   6 450.928 19.6330   1
   9   6  -1 470.632 17.4297   4
  -6   1   9 467.003 20.7602   2
   1  -9   6 484.534 19.9025   2
   6   1  -9 494.937 18.2332   4
  -1  -9  -6 513.270 20.7158   3
   9  -6   1 472.002 14.6036   4
   1   9  -6 484.299 20.0776   1
  -9   6   1 450.859 19.2418   2
  -6  -1  -9 451.714 17.1963   4
   1   9  -6 478.517 16.2542   4
   9  -6   1 481.193 19.8535   3
  -6  -1  -9 470.199 17.5362   3
   9   6   1 460.062 16.9901   1
  -6   1  -9 464.429 17.4429   4
  -1   9  -6 461.316 20.0753   1
  -6  -1   9 454.643 20.0585   2
   6   1   9 434.229 20.3042   1
   9  -6  -1 510.236 21.0675   3
  -6   1  -9 468.070 16.5108   3
   6  -1  -9 466.805 18.0364   3
   6  -1  -9 468.713 17.2105   4
  -9  -6   1 481.632 17.3598   2
  -9   6  -1 449.147 18.8561   2
  -9   6  -1 470.734 16.7155   1
  -1   9  -6 487.288 15.8731   4
  -1  -9   6 482.753 19.8538   2
   1  -9  -6 483.641 20.2175   3
  -9  -6   1 462.767 19.3510   3
   1   9   6 493.111 24.2171   2
   1   9   6 478.858 20.4818   1
   9   6   1 484.209 17.4511   4
  -1   9   8 24.1585 5.85771   1
   9   8  -1 25.7537 5.16644   4
   9  -8   1 24.7399 5.85614   3
  -1  -9  -8 27.6597 6.49492   3
  -9   8   1 26.9576 6.07796   2
   1  -9   8 29.5413 6.75299   2
  -8   1   9 25.2101 6.57383   2
   9  -8   1 22.6220 5.48145   2
   8   1  -9 23.1482 5.13330   4
  -8  -1  -9 23.7971 5.27113   3
   8  -1   9 22.4552 6.22988   1
   1   9  -8 22.2136 4.94698   4
  -9  -8  -1 31.6793 6.60552   3
   8   1  -9 28.2180 5.67835   3
   1   9  -8 30.3886 6.66799   1
  -8  -1  -9 29.9094 5.82724   4
  -8   1  -9 30.5530 5.98076   4
   8  -1  -9 23.9458 5.26246   3
   8  -1  -9 27.6487 5.28264   4
   1  -9  -8 28.3564 6.42461   3
   9   8   1 27.6232 5.90509   1
  -1   9  -8 29.2377 5.28934   4
  -8  -1   9 26.3052 7.05478   2
  -9   8  -1 29.7255 6.35508   2
   9   8   1 27.9956 5.22387   4
  -9  -8   1 20.9916 5.58275   3
  -8   1  -9 25.3089 5.25019   3
  -1   9  -8 23.4968 5.81623   1
   1   9   8 18.3538 5.41860   1
   8   1   9 18.6267 5.37114   1
   9  -8  -1 21.1690 5.51196   3
  -1  -9   8 22.7594 6.01003   2
  -9   8  -1 32.2246 5.85765   1
  -9   1   2 477.203 18.1057   2
  -1  -2  -9 491.816 16.0808   3
   9  -1   2 492.709 16.0724   4
  -9  -1  -2 481.010 15.0892   2
   1  -2   9 493.944 19.0874   1
   1   2  -9 514.651 17.0944   4
  -1   2   9 475.900 18.0587   1
   9  -1   2 483.586 14.7972   1
  -2   9   1 499.627 18.6901   1
   2   9  -1 486.887 12.8196   4
  -1  -2  -9 459.549 15.6205   4
  -2  -9  -1 498.810 16.8337   2
  -2  -9  -1 483.188 17.7113   3
   9   1  -2 466.940 16.0616   4
  -9  -1  -2 481.345 18.6573   3
   2   9  -1 498.712 18.7987   1
   2  -9   1 483.845 18.2956   2
   9   1  -2 496.000 19.1388   3
  -9  -1   2 466.039 17.9881   2
  -9  -1   2 484.446 18.6095   3
  -9   1  -2 486.859 15.9804   2
   9  -1  -2 485.784 15.7609   4
   1  -2  -9 484.801 15.6385   4
  -2  -9   1 483.988 17.3158   2
   9   1   2 469.550 14.7057   1
  -2   9  -1 491.628 18.7611   1
   1   2   9 473.928 18.7943   1
   1   2   9 485.487 14.8980   2
   2   9   1 487.134 18.7435   1
  -1  -2   9 483.028 17.6670   2
  -9   1  -2 495.596 18.6373   3
   9   1   2 510.392 16.7740   4
   2  -9  -1 490.206 17.9217   2
  -1  -2   9 493.040 17.9952   1
   1  -2  -9 480.737 16.1502   3
   9  -1  -2 469.914 19.0164   3
  -1   2  -9 497.618 16.7573   4
   2  -9  -1 499.108 18.1817   3
   9   3  -2 592.827 19.0072   4
  -3  -2  -9 582.438 18.2295   4
   3  -2   9 592.778 22.0945   1
   3  -2   9 582.311 17.4445   2
   2   9  -3 591.784 21.0331   1
  -3   2   9 579.667 19.1312   1
   2  -9   3 606.076 21.2139   2
   3   2  -9 590.227 19.2567   4
   2   9  -3 594.480 16.1498   4
  -9  -3  -2 559.423 20.8573   3
   2  -9   3 580.471 17.3267   3
   9  -3   2 565.673 17.1726   1
   9  -3   2 603.671 21.1696   3
  -3  -2  -9 591.711 18.5160   3
  -3   2   9 547.170 20.2543   2
  -2  -9  -3 605.380 17.9802   2
  -2  -9  -3 582.614 20.7687   3
  -9   3   2 600.604 21.1064   2
  -2   9   3 586.496 20.8887   1
   9  -3   2 569.883 17.2954   4
   2  -9  -3 596.671 21.0802   3
   9   3   2 588.048 17.7869   1
  -9   3  -2 584.681 19.0060   2
   3   2   9 596.460 22.1880   1
  -2  -9   3 570.075 16.9466   3
  -2   9  -3 588.024 21.3272   1
   9  -3  -2 563.331 16.5960   4
  -3   2  -9 603.881 19.0142   4
   9   3   2 571.782 18.5074   4
  -9  -3   2 576.605 19.7563   2
  -9  -3   2 572.879 20.6600   3
  -2  -9   3 600.253 20.7302   2
  -3  -2   9 604.531 19.2547   1
   3  -2  -9 576.266 18.6211   3
   2  -9  -3 621.438 20.4171   2
   9  -3  -2 601.368 22.0568   3
   3  -2  -9 589.216 17.7932   4
  -3  -2   9 615.173 21.3084   2
  -2   9   5 390.517 17.3882   1
   5  -2   9 373.935 18.0858   1
  -2  -9  -5 382.176 17.4447   3
   2  -9   5 392.483 17.5866   2
  -5   2   9 395.903 18.3562   2
  -5  -2  -9 373.875 15.3735   3
   2   9  -5 381.977 13.8432   4
  -2   9   5 374.159 15.7955   2
   9  -5   2 365.753 16.6819   3
   9   5  -2 384.945 15.5739   4
   5   2  -9 341.395 15.0684   4
  -5   2   9 360.751 15.9439   1
  -5  -2  -9 377.601 14.8694   4
  -9   5   2 362.423 17.0308   2
  -9  -5  -2 377.616 17.5137   3
   2   9  -5 389.255 17.1395   1
  -5   2  -9 386.738 15.5129   4
  -9  -5   2 356.697 15.3645   2
  -9  -5   2 408.967 17.3064   3
  -5  -2   9 393.721 17.9891   2
   9  -5  -2 379.266 12.5412   4
   9  -5  -2 383.751 17.9794   3
  -2   9  -5 389.207 18.0774   1
   5  -2  -9 370.704 15.8263   3
   2  -9  -5 379.804 17.4586   3
   5   2   9 371.197 17.9376   1
   9   5   2 384.988 15.2763   1
   5  -2  -9 372.859 14.5033   4
  -9   5  -2 398.568 14.9930   1
  -2  -9   5 404.139 17.7340   2
  -9   5  -2 387.824 16.4236   2
   9   5   2 392.587 15.1885   4
  -2   9  -5 379.993 12.7808   4
   2   9   5 384.934 18.0685   1
  -2   9   7 319.386 14.9109   2
   2   9  -7 304.560 13.7783   4
   2  -9   7 335.351 16.7029   2
  -2   9   7 340.982 16.9905   1
  -9  -7  -2 311.470 16.7285   3
   9  -7   2 305.141 15.8194   2
   7  -2   9 319.943 17.2924   1
   9   7  -2 321.679 14.6314   4
  -7  -2  -9 307.233 15.0936   3
  -7  -2  -9 297.416 14.1245   4
  -2  -9  -7 320.860 16.9144   3
   9  -7   2 299.602 15.6663   3
   2   9  -7 328.637 16.5271   1
   7   2  -9 316.486 14.9753   4
  -9   7   2 323.355 16.8065   2
  -7   2   9 317.455 17.7145   2
   7  -2  -9 298.867 15.2889   3
  -9   7  -2 327.317 14.9078   1
   2   9   7 320.262 17.4487   1
  -9  -7   2 308.451 15.7176   3
  -9   7  -2 332.040 16.4612   2
  -2   9  -7 322.869 13.1557   4
   9   7   2 308.271 13.7861   4
  -7   2  -9 293.390 14.0762   4
  -9  -7   2 293.798 14.3316   2
   7   2   9 332.216 17.8494   1
   9  -7  -2 307.758 16.8529   3
  -2   9  -7 313.006 16.8391   1
  -7  -2   9 328.213 17.4946   2
   9   7   2 336.413 15.6708   1
  -2  -9   7 313.405 16.6305   2
   7  -2  -9 316.351 13.9566   4
   2  -9  -7 315.653 16.7266   3
   0   3  -9 10.6333 3.30131   4
   0   3   9 13.2362 4.09478   1
   0  -3   9 1.57230 1.94760   1
   9   0  -3 1.77886 1.83178   3
   9   0  -3 1.75330 1.53397   4
   9   0   3 4.51697 1.96384   1
   0  -3   9 2.74483 1.96292   2
   0  -3  -9 2.04181 1.75024   3
   0  -3  -9 0.01022 1.16985   4
   0   3   9 0.67554 1.47438   2
   3  -9   0 12.3054 3.56536   3
   3  -9   0 -0.7169 0.95599   2
  -9   0  -3 0.72718 1.38503   2
   3   9   0 0.52654 0.96197   4
  -9   0   3 -0.3676 1.45144   2
  -3  -9   0 3.61217 2.14535   3
  -3   9   0 2.23978 1.78601   1
  -3  -9   0 1.03658 1.49346   2
   9   0   3 1.88074 1.59433   4
  -9   0  -3 1.10242 1.30079   3
   3   9   0 4.61542 2.50546   1
   9  -2   3 597.912 18.2157   4
   2  -3   9 583.981 21.7768   1
  -2   3   9 610.238 20.5113   1
   9   2  -3 584.147 18.8669   4
  -2  -3  -9 591.154 19.0287   3
  -2  -3  -9 576.349 17.7013   4
  -3  -9  -2 588.302 20.6083   3
   3  -9   2 613.079 21.3792   2
   3  -9   2 587.214 18.6001   3
  -3  -9  -2 577.815 17.7767   2
   2   3  -9 585.867 19.0202   4
  -9   2   3 609.648 21.5487   2
  -9  -2  -3 562.050 20.8160   3
   3   9  -2 606.440 21.2362   1
   9  -2   3 573.443 17.9057   1
   3   9  -2 562.646 15.6838   4
   9   2  -3 587.941 21.1967   3
  -2   3   9 555.651 19.6206   2
  -3   9   2 594.772 20.6081   1
   2   3   9 599.433 22.1334   1
   3   9   2 583.198 14.5343   4
  -9  -2   3 598.671 20.9767   2
  -9  -2   3 616.455 21.1435   3
   9  -2  -3 564.975 21.4800   3
  -9   2  -3 572.446 20.3289   3
  -3   9  -2 599.904 21.3825   1
   2  -3  -9 560.457 18.8325   3
   2  -3  -9 592.066 17.4202   4
   9  -2  -3 589.591 17.4846   4
  -2  -3   9 581.464 19.7331   1
   3   9   2 613.507 21.6227   1
   9   2   3 579.466 18.3398   1
   9   2   3 610.160 18.9757   4
   3  -9  -2 585.304 20.9379   3
  -2   3  -9 576.455 18.8518   4
  -9   2  -3 581.102 17.9292   2
  -2  -3   9 598.311 20.9514   2
   3  -9  -2 581.580 20.5627   2
  -3  -9   2 581.739 18.3024   3
  -3  -9   2 588.556 20.0873   2
   3   9  -4 19.9653 3.86963   4
  -3  -9  -4 20.2346 4.95464   3
   3  -9   4 19.4329 4.68528   2
  -3   9   4 19.2083 4.65579   1
   9  -4   3 18.0545 4.14270   1
  -4   3   9 21.5050 4.65187   1
   9  -4   3 22.0747 4.98067   3
  -9  -4  -3 22.6245 5.42755   3
   4  -3   9 21.8882 4.30005   2
  -9   4   3 16.3840 4.45095   2
   9  -4   3 20.2058 3.98439   4
   9   4  -3 22.4683 4.85727   4
   3   9  -4 19.1106 4.64644   1
  -3   9   4 25.4580 5.34050   2
   4   3  -9 23.0729 5.01775   4
  -4  -3  -9 20.4872 4.38796   3
  -4  -3  -9 22.8696 4.37929   4
   4  -3   9 22.9972 5.82475   1
  -4   3   9 22.0079 5.13399   2
  -4   3  -9 14.6681 3.78506   4
   3  -9  -4 14.8333 3.95986   2
   3  -9  -4 18.4195 4.89293   3
   9  -4  -3 21.1957 3.65052   4
  -3  -9   4 21.1144 4.98624   2
  -4  -3   9 27.1141 6.12655   2
   4   3   9 20.8938 5.56176   1
  -3   9  -4 17.5141 4.61942   1
   4  -3  -9 21.8070 4.10816   4
  -4  -3   9 13.7017 3.56293   1
  -9  -4   3 23.2410 5.23580   2
  -9  -4   3 25.6256 5.46533   3
  -9   4  -3 30.6180 5.29840   2
   9   4   3 17.9534 4.36103   1
   9   4   3 15.6363 3.67270   4
   4  -3  -9 22.3664 4.82767   3
   9  -4  -3 18.9961 4.75253   3
   3   9   4 17.8975 4.80383   1
   3   9  -6 438.054 16.3046   4
  -9  -6  -3 445.361 19.8859   3
  -6  -3  -9 457.852 17.0483   4
  -9   6   3 430.104 19.4980   2
  -3   9   6 440.667 18.8176   1
  -6   3   9 453.805 20.6502   2
   9  -6   3 465.800 19.0079   3
   9  -6   3 463.898 18.6041   2
   9  -6   3 453.401 15.1686   4
   3  -9   6 455.927 19.4497   2
   3   9  -6 439.415 18.6344   1
  -6  -3  -9 446.009 18.3745   3
   9   6  -3 440.198 17.4551   4
   6   3  -9 446.483 17.8504   4
  -3   9   6 437.055 18.0360   2
  -3  -9  -6 446.379 19.8288   3
   6  -3   9 453.011 20.6598   1
   9   6   3 440.728 16.7609   4
  -9  -6   3 457.337 18.6691   3
   6   3   9 442.853 20.2777   1
   9  -6  -3 454.557 20.3903   3
  -3   9  -6 439.511 14.8900   4
   3   9   6 441.298 20.3102   1
  -3  -9   6 433.139 19.4262   2
   6  -3  -9 444.333 16.0385   4
   3  -9  -6 473.180 20.4999   3
  -6  -3   9 451.769 20.2588   2
  -3   9  -6 430.443 19.7059   1
   6  -3  -9 443.486 18.6784   3
  -9   6  -3 449.273 17.6104   1
  -6   3  -9 416.649 16.6086   4
  -9   6  -3 431.478 18.1710   2
  -9  -6   3 452.734 18.3261   2
   3   9  -8 0.72507 1.62063   1
   9  -8   3 0.28457 2.09662   2
   9   8  -3 1.27341 1.90144   4
   3  -9   8 1.27213 2.24932   2
  -9  -8  -3 5.67397 2.99978   3
  -9   8   3 0.43620 1.87733   2
   8   3  -9 1.19041 1.82518   4
  -8  -3  -9 -1.1255 1.67705   3
  -8  -3  -9 7.52185 3.23009   4
  -8   3   9 0.66282 2.69683   2
  -3   9   8 0.36360 1.69772   2
  -3  -9  -8 2.21943 2.08391   3
   3   9  -8 -2.3382 1.29258   4
   9  -8   3 1.54753 1.98950   3
  -3   9   8 2.71143 2.02088   1
   8  -3   9 -0.5188 1.83373   1
   3   9   8 7.97286 3.79630   1
  -9  -8   3 1.64988 2.00622   2
   8   3   9 4.29210 2.98623   1
  -9   8  -3 -1.7286 1.34912   2
   3  -9  -8 0.61498 1.48818   3
  -8   3  -9 -0.3225 1.38305   4
   9   8   3 -2.7404 1.22505   1
   8   3   9 7.99696 3.40711   4
   9  -8  -3 -0.1355 1.57073   3
  -3   9  -8 3.62248 2.78492   1
  -3   9  -8 1.86343 1.89172   4
  -9  -8   3 0.32594 1.47733   3
  -9   8  -3 5.37733 2.75576   1
   8  -3  -9 22.1296 5.56867   3
   8  -3  -9 3.44029 2.05053   4
  -3  -9   8 1.79280 2.02214   2
   9   8   3 -0.8633 1.13827   4
  -8  -3   9 3.38453 2.88243   2
  -4  -9  -1 44.8677 6.84954   3
  -4  -9  -1 37.0535 5.44173   2
  -1   4   9 50.5703 6.88184   2
  -1   4   9 40.9814 7.00480   1
   4  -9   1 56.3373 7.50241   3
   9  -1   4 45.7399 6.34565   1
   9  -1   4 51.3034 6.75062   4
  -9   1   4 44.8311 7.69637   2
  -9  -1  -4 51.5472 7.70113   3
   4   9  -1 53.8253 7.83459   1
   9   1  -4 47.9672 7.35045   3
   1  -4   9 46.8388 6.53742   2
  -4   9   1 55.0977 7.79109   1
   1  -4   9 52.5675 8.06580   1
   9   1  -4 48.3030 6.41285   4
   4   9  -1 47.1051 4.30022   4
  -1  -4  -9 48.5252 5.74766   4
  -1  -4  -9 39.8678 6.22066   3
   4  -9   1 48.3333 7.39695   2
   1   4  -9 48.2551 6.33910   4
  -9   1  -4 49.8450 7.11508   3
  -9  -1   4 46.9302 7.71738   2
   4  -9  -1 45.1528 7.13646   2
  -1  -4   9 48.7198 7.10360   1
  -1  -4   9 51.4515 7.20835   2
  -1   4  -9 57.4910 7.27381   4
   9  -1  -4 40.3070 6.67899   3
   1   4   9 43.5134 7.37241   1
   9  -1  -4 44.3122 5.77277   4
   4  -9  -1 39.5226 6.63389   3
   9   1   4 48.6908 6.72980   1
   9   1   4 58.1952 7.35278   4
  -4  -9   1 52.8063 7.13295   3
   1  -4  -9 46.4320 5.63876   4
   4   9   1 35.1945 6.31931   1
  -4  -9   1 52.9026 5.82644   2
  -9   1  -4 49.4061 4.65469   2
  -4   9  -1 51.1405 7.53781   1
   4   9   1 45.7771 4.05596   4
   1  -4  -9 46.1479 6.68761   3
  -3  -4  -9 29.3926 4.76864   4
  -9   3   4 18.4567 4.78965   2
  -4  -9  -3 11.5828 3.86276   3
   4  -9   3 24.9371 4.58762   3
  -4   9   3 20.6487 4.70183   1
  -3   4   9 17.8486 4.57357   2
   3  -4   9 20.2109 5.24247   1
   4   9  -3 20.1125 3.90150   4
  -9  -3  -4 14.2518 4.25561   3
   9   3  -4 18.8631 4.34006   4
   4  -9   3 21.9314 5.17403   2
   9  -3   4 13.0779 3.28113   4
   4   9  -3 22.3909 5.12586   1
   3   4  -9 19.8084 4.45757   4
  -3   4   9 17.7592 4.47343   1
   3  -4   9 18.0469 4.05560   2
  -4   9   3 24.5662 5.32593   2
  -3  -4  -9 24.3958 5.17865   3
   4   9   3 21.9906 3.60037   4
  -4  -9   3 19.2787 4.94499   2
  -4  -9   3 20.2809 4.14620   3
   9  -3  -4 15.6948 3.42928   4
   9   3   4 22.4857 4.74733   4
  -9  -3   4 26.0183 5.47896   2
  -3   4  -9 21.1255 4.47983   4
   4   9   3 19.8368 5.07901   1
  -9   3  -4 22.8596 4.27331   2
   3   4   9 20.9016 5.54619   1
  -3  -4   9 19.8750 4.46516   1
  -3  -4   9 25.4669 5.65506   2
   9  -3  -4 19.4170 4.78945   3
   9   3   4 39.3305 6.25776   1
   3  -4  -9 23.4785 5.11574   3
  -4   9  -3 25.4998 5.68172   1
  -9   3  -4 16.1796 4.25254   3
  -9  -3   4 26.6097 5.52869   3
   4  -9  -3 23.6170 5.33207   2
   4  -9  -3 20.0480 5.03324   3
   5  -4   9 1.15248 2.05743   1
  -5  -4  -9 8.00834 3.28254   3
  -9  -5  -4 2.17725 2.11763   3
   9  -5   4 3.01539 2.36039   3
  -4   9   5 1.06422 1.79172   2
   5   4  -9 27.2484 5.64667   4
   4   9  -5 0.56254 1.46658   4
   9  -5   4 0.59323 1.24422   4
   9   5  -4 2.64401 2.04757   4
   4  -9   5 2.96385 2.35424   2
   5  -4   9 0.97025 1.62346   2
  -5   4   9 -0.1845 1.79783   1
  -5   4   9 1.22849 2.18816   2
  -5  -4  -9 8.26217 2.88560   4
   9  -5   4 3.48303 1.99591   2
  -9   5   4 -1.2387 1.25151   2
   9  -5   4 1.53957 1.84322   1
   9  -5  -4 -0.1557 1.13768   3
  -4  -9   5 2.18999 1.97853   2
   5   4   9 2.57618 2.54935   1
  -9   5  -4 0.71735 1.39028   3
  -9  -5   4 0.31384 1.99308   2
  -9  -5   4 7.07122 3.11663   3
   4  -9  -5 5.73632 2.84679   3
  -5   4  -9 2.88581 1.86114   4
   9   5   4 1.96903 1.83739   1
   9   5   4 0.63520 1.59631   4
  -9   5  -4 1.98251 1.88245   1
  -4   9  -5 1.65283 2.14296   1
   5  -4  -9 7.83466 3.08516   3
   5  -4  -9 0.49209 1.25155   4
  -5  -4   9 1.19868 2.16816   2
   4   9   5 2.04279 2.46271   1
  -9   5  -4 2.68317 2.19429   2
   4  -9   7 2.75335 2.22729   2
  -7  -4  -9 4.21679 2.37630   4
   7   4  -9 2.74954 2.26739   4
  -9   7   4 2.08444 2.33073   2
   7  -4   9 6.67776 3.68740   1
   9  -7   4 4.04377 2.46370   3
   9   7  -4 8.18295 3.37351   4
  -9  -7  -4 5.77251 3.29252   3
   4   9  -7 4.36676 2.64098   1
  -7   4   9 1.81194 2.70163   2
  -4  -9  -7 4.95820 2.72645   3
   9  -7   4 4.56916 2.73701   2
   4   9  -7 1.55414 1.79693   4
  -4   9   7 6.91614 3.35589   2
  -4   9   7 4.87886 3.00950   1
  -7  -4  -9 12.1651 4.34120   3
  -4   9  -7 8.66424 2.78894   4
   9   7   4 6.73685 2.86102   1
   4  -9  -7 4.23979 2.61264   3
  -7   4  -9 4.41448 2.51901   4
  -4   9  -7 4.23275 3.08388   1
   7  -4  -9 1.85840 2.17318   3
   7  -4  -9 2.89534 1.92430   4
  -4  -9   7 3.86599 2.26764   2
  -9   7  -4 9.53547 3.50410   1
  -9  -7   4 10.4486 3.71490   3
   7   4   9 6.84060 3.65947   1
   7   4   9 1.88091 2.11625   4
   4   9   7 0.97928 2.29732   1
  -9  -7   4 7.23240 3.20892   2
   9  -7  -4 6.88905 3.49394   3
   9   7   4 2.06961 1.91321   4
  -7  -4   9 6.16395 3.23818   2
  -9   0  -5 7.64653 3.00298   3
   0  -5  -9 3.28799 2.26737   3
   0   5   9 4.36999 2.18187   2
   5   9   0 1.81480 1.97943   1
   0   5  -9 4.32235 2.20192   4
   0   5   9 0.96720 2.07723   1
   5  -9   0 5.96359 2.71419   2
   0  -5  -9 5.60394 1.98485   4
   9   0  -5 1.47671 1.84061   3
   5   9   0 4.17132 1.88103   4
  -5  -9   0 4.37942 2.19533   2
   5  -9   0 23.9645 5.53095   3
  -5   9   0 1.55387 1.90224   1
   0  -5   9 24.7261 5.35907   2
  -9   0   5 2.12501 2.36669   2
   9   0   5 2.96316 2.19633   1
   0  -5   9 3.00258 2.00112   1
  -5  -9   0 1.72848 1.94152   3
   9   0   5 2.37676 1.85880   4
   9   0  -5 1.55958 1.80033   4
  -2   5   9 391.255 17.3012   1
   2   5  -9 385.665 15.7564   4
   9   2  -5 389.262 15.9216   4
  -2  -5  -9 393.370 13.9957   4
   9   2  -5 373.589 16.7880   3
  -9  -2  -5 371.386 16.9143   3
   2  -5   9 377.367 16.1484   2
  -5  -9  -2 395.267 17.3673   3
   5   9  -2 363.032 13.5092   4
   2  -5   9 388.948 17.9586   1
   5   9  -2 402.335 16.7689   1
  -5  -9  -2 358.368 14.8064   2
  -9   2   5 369.752 17.7170   2
   9  -2   5 389.304 16.3927   1
   9  -2   5 377.107 15.0963   4
  -5   9   2 384.062 17.1574   2
   5  -9   2 406.688 17.7210   2
  -2  -5  -9 375.546 16.5241   3
  -5   9   2 419.269 16.9828   1
   9  -2  -5 386.727 14.5039   4
   5   9   2 381.553 17.3371   1
   9   2   5 413.316 17.0338   1
   5  -9  -2 360.968 16.8146   2
   5  -9  -2 368.698 17.2756   3
   2  -5  -9 378.331 13.0952   4
   2  -5  -9 385.541 16.7584   3
   2   5   9 384.130 18.2386   1
  -9  -2   5 394.098 17.9730   2
   9   2   5 384.668 15.5174   4
  -5   9  -2 409.053 17.5308   1
  -9  -2   5 387.652 16.6035   3
  -2  -5   9 402.356 17.7599   2
  -5  -9   2 392.166 16.3463   2
   9  -2  -5 372.954 17.3286   3
  -2   5  -9 389.348 15.3848   4
  -2  -5   9 393.955 16.6057   1
  -9   2  -5 368.615 16.0715   3
   5   9   2 380.186 12.8839   4
   4  -5   9 0.84880 1.77187   2
   4   5  -9 0.34039 1.65766   4
  -5  -9  -4 3.99542 2.77600   3
   5   9  -4 2.55658 1.96380   4
  -4   5   9 0.04311 1.67215   1
   5   9  -4 3.36658 2.61384   1
   4  -5   9 3.50054 2.48350   1
  -5   9   4 -1.8894 1.31531   2
   9  -4   5 -0.0659 1.73086   1
   9  -4   5 1.50138 1.54527   2
   9  -4   5 2.58116 1.89017   4
   4   5  -9 2.44367 1.93377   1
  -9  -4  -5 2.58089 2.39365   3
   5  -9   4 9.33900 3.61292   2
  -5   9   4 2.67732 2.19152   1
  -9   4   5 0.76480 1.63554   2
  -4  -5  -9 1.25942 1.44284   4
  -4   5   9 1.58548 2.16662   2
   9   4  -5 0.93695 1.89249   4
  -4  -5   9 1.18353 1.81301   1
   9   4   5 9.11087 3.64204   1
  -5   9  -4 1.38679 1.84297   1
  -4  -5   9 2.20295 1.94611   2
  -9   4  -5 0.20294 1.43999   3
   4   5   9 5.54068 3.28942   1
  -9   4  -5 3.22133 2.23309   4
   4  -5  -9 1.21976 1.89767   3
   9  -4  -5 2.24145 1.29525   4
   9   4   5 0.52268 1.64251   4
   4  -5  -9 3.03922 1.59469   4
   5   9   4 3.38165 2.78996   1
  -4   5  -9 -0.9576 1.08406   4
  -5  -9   4 1.61265 1.76910   2
  -9  -4   5 0.52496 1.77898   3
  -9   4  -5 4.76710 2.36026   2
   5  -9  -4 1.96669 2.28920   3
  -9  -4   5 -0.5602 1.63278   2
   5   9   4 4.56041 1.64435   4
   9  -4  -5 5.29276 2.86549   3
   9   6  -5 379.568 16.8759   4
   6  -5   9 366.796 15.7338   2
  -6  -5  -9 380.800 15.6233   4
  -6   5   9 389.305 19.1419   2
   6  -5   9 397.830 19.7029   1
  -9   6   5 368.653 18.7022   2
  -6  -5  -9 387.280 18.1901   3
   6   5  -9 380.697 16.9326   4
  -5   9   6 375.551 18.1096   2
  -9  -6  -5 392.348 19.2174   3
   5  -9   6 396.254 18.5142   2
   5   9  -6 384.426 16.8942   1
   5   9  -6 367.372 15.6971   4
   9  -6   5 375.087 17.4998   1
  -5  -9  -6 402.344 19.4108   3
   9  -6   5 393.377 17.2123   2
  -5   9   6 388.142 17.3172   1
  -9  -6   5 387.702 18.2240   2
   6  -5  -9 375.846 18.1241   3
  -9   6  -5 366.929 17.3657   1
  -9   6  -5 402.592 16.7924   3
   9   6   5 371.357 17.7811   1
  -5   9  -6 400.898 19.1657   1
   5  -9  -6 370.224 18.9012   3
   9   6   5 372.050 15.8298   4
   5   9   6 377.673 19.3877   1
  -6  -5   9 396.193 19.3471   2
   9  -6  -5 386.622 19.3926   3
  -5  -9   6 413.239 19.1033   2
   6   5   9 397.823 19.9198   1
  -9   6  -5 376.717 14.7844   4
  -6   5  -9 365.403 15.7028   4
  -5   9   8 10.9671 4.33371   2
  -8   5   9 10.4935 4.99014   2
  -5  -9  -8 6.10762 3.21679   3
  -9   8   5 7.20491 3.87419   2
   8  -5   9 7.19275 3.73555   1
  -5   9   8 8.25416 3.78554   1
   9  -8   5 15.8478 4.91203   2
  -9  -8  -5 7.02098 3.90531   3
   5  -9   8 17.6371 5.16273   2
   5   9  -8 11.5046 3.78621   4
   8   5  -9 5.17597 2.92162   4
  -8  -5  -9 10.7395 4.09914   3
  -8  -5  -9 13.5797 4.29364   4
   9   8  -5 14.3665 4.39764   4
  -5   9  -8 12.9768 3.23961   4
   9   8   5 11.8120 3.56684   4
   9  -8  -5 13.1053 5.03194   3
  -5  -9   8 7.83557 3.56448   2
  -8   5  -9 23.1908 4.92875   4
  -9  -8   5 18.0171 4.95063   2
   8   5   9 11.0913 4.83540   1
   8   5   9 10.9649 3.80081   4
   9   8   5 19.1831 5.51528   1
  -5   9  -8 14.1883 5.11604   1
  -8  -5   9 13.8760 5.16752   2
   5   9   8 8.39333 3.77726   1
   8  -5  -9 13.0076 4.49448   3
   5  -9  -8 8.89190 3.75759   3
  -9   8  -5 5.31397 2.82228   1
   9   1  -6 484.323 18.0537   4
  -6   9   1 451.702 19.3393   2
  -6   9   1 466.191 18.4344   1
   6  -9   1 471.079 18.9611   3
   9   1  -6 476.384 19.4217   3
  -9   1   6 441.429 20.4717   2
  -6  -9  -1 458.753 16.0374   2
  -1  -6  -9 475.345 19.3599   3
   1  -6   9 453.950 18.7507   2
  -1   6   9 464.368 19.8929   1
  -1   6   9 437.928 16.7404   2
  -1  -6  -9 472.585 15.0320   4
   6   9  -1 451.671 15.5268   4
   1  -6   9 482.658 20.2535   1
  -6  -9  -1 484.534 19.6616   3
   1   6  -9 502.732 17.9757   4
   9  -1   6 458.916 17.4320   4
   9  -1   6 483.466 19.3900   1
   6  -9   1 468.272 19.8280   2
   6   9  -1 491.444 18.8653   1
  -9  -1  -6 468.961 19.0447   3
   1   6   9 500.893 21.1662   1
   6  -9  -1 442.289 19.3140   2
   9   1   6 475.737 19.2562   1
  -6  -9   1 483.159 18.7714   3
   9   1   6 477.467 17.9244   4
  -1  -6   9 474.442 19.3218   1
  -9   1  -6 487.886 18.8134   3
   9  -1  -6 468.557 16.9763   4
  -9  -1   6 500.018 21.2550   2
  -1   6  -9 487.695 17.5326   4
  -1  -6   9 471.756 19.6968   2
   1  -6  -9 457.692 19.0383   3
  -6  -9   1 474.990 17.6380   2
   6  -9  -1 475.853 19.8295   3
   6   9   1 453.320 18.9979   1
  -6   9  -1 448.061 18.6197   1
   9  -1  -6 468.041 19.7047   3
   1  -6  -9 478.289 14.6545   4
   6   9   1 484.219 15.5802   4
  -3   6   9 448.758 18.8482   1
   3  -6   9 462.104 20.6128   1
   9  -3   6 459.416 17.1536   4
  -9   3   6 413.265 19.8646   2
  -6  -9  -3 440.259 19.4618   3
   3   6  -9 471.269 18.1224   4
  -3  -6  -9 423.499 15.1121   4
  -6   9   3 446.409 17.9809   1
   3   6  -9 450.664 18.2465   1
   9   3  -6 447.598 17.9642   4
  -6   9   3 449.223 19.6334   2
   6   9  -3 424.636 15.9516   4
   3  -6   9 461.620 18.5870   2
   6  -9   3 440.071 19.2046   2
  -3   6   9 455.922 18.5356   2
  -3  -6  -9 448.730 19.0750   3
   6  -9   3 459.872 17.5037   3
   9  -3   6 434.115 18.5783   1
  -9  -3  -6 435.509 18.9526   3
  -9  -3   6 438.415 17.8511   3
   9   3   6 447.809 17.4174   4
  -6   9  -3 451.064 19.1601   1
  -9   3  -6 440.204 16.8090   4
   9  -3  -6 440.366 19.8549   3
   6  -9  -3 457.384 19.9827   3
   9   3   6 457.395 19.2774   1
   3  -6  -9 445.880 19.1535   3
  -3   6  -9 452.879 17.0307   4
   9  -3  -6 456.827 15.9660   4
   6   9   3 437.857 15.0046   4
  -6  -9   3 459.610 18.7896   2
  -9   3  -6 448.358 17.8025   3
  -3  -6   9 413.790 19.1449   2
  -3  -6   9 443.982 18.0282   1
   3   6   9 436.976 20.5490   1
   6   9   3 420.094 19.0318   1
  -9  -3   6 476.500 20.4581   2
  -6  -9   3 469.952 17.5577   3
  -5   6   9 370.625 16.5257   1
  -6   9   5 371.599 16.5380   1
   5  -6   9 365.455 16.4226   2
   6  -9   5 367.004 17.9415   2
  -5  -6  -9 378.389 18.2123   3
  -9  -5  -6 395.123 19.0471   3
   9   5  -6 386.643 17.2139   4
  -5   6   9 380.790 18.3104   2
   9  -5   6 398.949 18.3833   1
   9  -5   6 368.379 15.9144   2
   6   9  -5 407.686 17.2345   1
   5   6  -9 388.137 17.0148   4
  -5  -6  -9 387.205 15.2620   4
   6   9  -5 377.497 15.8407   4
  -6   9   5 394.790 18.7193   2
  -9   5   6 386.448 19.4152   2
  -6  -9  -5 346.426 18.1835   3
   5  -6   9 413.235 20.0436   1
  -6   9  -5 369.664 18.4936   1
  -5  -6   9 389.690 19.1719   2
   6   9   5 400.465 19.5660   1
  -9   5  -6 379.000 16.2191   3
   5   6   9 386.316 19.9005   1
   6  -9  -5 366.317 18.8575   3
   5  -6  -9 419.762 19.2419   3
   6   9   5 386.055 14.4630   4
   9  -5  -6 390.508 19.2806   3
  -9   5  -6 380.152 15.4371   4
  -9  -5   6 390.009 18.8195   2
   9   5   6 413.793 16.9530   4
  -5   6  -9 370.204 15.8013   4
  -6  -9   5 394.520 18.6462   2
   9   5   6 407.875 18.7809   1
  -9   7   6 435.220 21.2613   2
  -6   9   7 451.473 20.9258   2
   7  -6   9 397.068 20.7024   1
  -7   6   9 477.778 22.2444   2
  -6  -9  -7 427.523 20.8934   3
   6   9  -7 424.467 18.2183   4
   9  -7   6 436.351 20.3262   1
   9  -7   6 448.704 19.5026   2
   9   7  -6 460.100 19.3940   4
  -6   9   7 422.139 18.4336   1
   6  -9   7 424.908 19.8743   2
  -7  -6  -9 428.927 17.4331   4
  -7  -6  -9 419.559 20.1863   3
  -9  -7  -6 442.697 21.3295   3
   7   6  -9 447.189 19.3205   4
   9   7   6 457.478 21.2060   1
  -6  -9   7 451.237 21.3469   2
   7   6   9 424.821 17.6042   4
  -9   7  -6 449.887 16.8846   4
  -6   9  -7 428.525 21.1741   1
   9  -7  -6 453.918 21.7556   3
  -7  -6   9 418.961 21.0429   2
   7  -6  -9 433.513 20.9091   3
  -7   6  -9 442.638 17.8517   4
   7   6   9 400.097 21.1372   1
   6   9   7 452.330 22.5497   1
  -9   7  -6 448.379 20.6064   1
   9   7   6 453.912 18.1566   4
  -9  -7   6 446.364 20.6691   2
   6  -9  -7 424.962 21.2910   3
   7  -9   0 0.14375 1.74109   3
   7   9   0 3.39594 2.05426   4
   0  -7   9 10.0646 3.66847   2
   0  -7  -9 3.01244 2.44698   3
   9   0   7 -0.4511 1.34532   4
   0   7  -9 -0.5523 2.10565   1
   9   0  -7 2.26520 2.13448   3
   9   0  -7 1.35369 1.99554   4
   9   0   7 2.79796 2.56973   1
   0  -7   9 1.97588 1.89961   1
   7   9   0 3.39373 2.39429   1
  -7   9   0 -0.0668 1.87617   2
  -7  -9   0 -0.1989 1.76514   3
   0   7  -9 12.6442 3.81760   4
  -7   9   0 0.36830 1.54452   1
  -9   0  -7 2.31634 2.10446   3
  -9   0   7 -0.0189 2.40235   2
  -7  -9   0 1.37164 1.91363   2
   0   7   9 -0.4494 1.84915   1
   7  -9   0 1.04295 2.36042   2
   9   2  -7 300.426 15.1768   3
   2   7  -9 322.458 14.8779   4
   7   9  -2 303.334 14.5807   1
  -7   9   2 314.992 14.7482   1
  -7   9   2 322.042 16.8779   2
  -2  -7  -9 321.941 12.4027   4
  -9   2   7 331.355 18.1457   2
  -7  -9  -2 320.370 16.6299   3
   7   9  -2 298.512 13.4899   4
   2  -7   9 326.889 17.1118   1
  -9  -2  -7 325.100 16.0665   3
   2   7  -9 317.069 15.9689   1
   9  -2   7 325.646 16.5858   1
   9  -2   7 300.239 14.2251   4
   7  -9   2 336.164 16.9939   2
   9   2  -7 314.640 14.9998   4
  -2  -7  -9 291.563 15.8616   3
   7  -9   2 298.696 15.1050   3
   2  -7   9 316.614 15.9394   2
  -2   7   9 326.366 16.7536   1
   9   2   7 335.905 17.0384   1
   9  -2  -7 316.648 16.3766   3
   9  -2  -7 307.429 13.8331   4
   9   2   7 326.589 15.0814   4
  -7   9  -2 320.660 15.8492   1
  -9  -2   7 310.529 15.1932   3
  -7  -9   2 316.925 15.2492   3
   2  -7  -9 328.368 16.8168   3
  -9   2  -7 325.406 14.7013   4
  -2   7  -9 304.883 13.8940   4
   7   9   2 320.316 16.2553   1
   7   9   2 312.172 12.9732   4
  -2  -7   9 312.072 15.8574   1
  -2  -7   9 302.397 16.4597   2
   2   7   9 327.918 17.7735   1
  -7  -9   2 304.413 14.7197   2
  -9  -2   7 332.685 17.6746   2
  -9   2  -7 324.425 15.0719   3
   7  -9  -2 346.715 17.6493   3
  -9  -4  -7 6.18644 3.55910   3
   4  -7   9 6.34546 3.09046   2
  -9   4   7 3.94334 2.97041   2
  -7  -9  -4 4.60768 3.35652   3
  -4   7   9 19.3059 5.15106   1
   9   4  -7 2.95220 2.33098   4
   4  -7   9 5.43883 3.20529   1
   7   9  -4 8.20124 3.24771   4
  -7   9   4 7.88093 3.29084   1
  -4  -7  -9 3.97933 1.65771   4
   9  -4   7 4.91591 2.94388   1
   7  -9   4 5.62717 3.08592   2
  -4   7   9 4.78471 2.92144   2
  -4  -7  -9 4.60292 2.77556   3
   4   7  -9 7.58250 3.34053   4
  -7   9   4 2.05945 2.40021   2
   4   7   9 2.30220 2.87336   1
  -9  -4   7 2.17207 2.81580   2
   9   4   7 3.95598 2.90596   1
   9  -4  -7 6.51880 3.30904   3
   9  -4  -7 6.31105 2.48751   4
  -7   9  -4 10.3447 3.85350   1
   7   9   4 5.90927 2.42063   4
   7   9   4 7.07509 3.63147   1
  -9  -4   7 4.72740 2.90264   3
  -9   4  -7 6.40099 3.13135   3
   7  -9  -4 4.23738 3.00086   3
   9   4   7 7.08313 3.06281   4
  -9   4  -7 6.13138 2.67325   4
  -4  -7   9 3.44667 2.83292   2
  -4   7  -9 9.20800 3.07492   4
  -7  -9   4 4.20943 2.54936   2
  -9   6   7 412.370 21.1455   2
   6  -7   9 440.960 21.8173   1
   7  -9   6 443.675 20.3345   2
   6   7  -9 435.770 18.8276   4
  -7   9   6 446.146 21.0463   2
  -6  -7  -9 482.345 21.6958   3
  -6   7   9 433.521 20.7483   2
  -7  -9  -6 454.512 21.7018   3
  -9  -6  -7 454.716 21.4246   3
  -6  -7  -9 456.471 17.3346   4
   9  -6   7 445.990 20.9357   1
   7   9  -6 450.350 18.6109   4
   6  -7   9 420.616 18.7688   2
   9   6  -7 456.244 19.5517   4
  -9   6  -7 444.680 17.4079   4
   9   6   7 458.848 21.6822   1
   7   9   6 425.224 21.3225   1
  -9  -6   7 438.529 20.8409   2
   6   7   9 423.775 21.7841   1
   6  -7  -9 441.293 20.9487   3
   7  -9  -6 459.996 22.0404   3
   9   6   7 405.017 17.6211   4
   7   9   6 451.104 17.0529   4
  -7  -9   6 426.754 20.5282   2
  -6   7  -9 390.676 16.8355   4
  -6  -7   9 431.368 21.2157   2
  -7   9  -6 429.346 20.6000   1
   9  -6  -7 470.120 21.9186   3
   7   9  -8 5.87628 3.36045   4
  -8   7   9 0.28969 2.37908   2
  -7  -9  -8 8.65965 4.31113   3
  -9  -8  -7 7.89594 3.93001   3
  -8  -7  -9 6.40101 3.50971   3
  -8  -7  -9 8.91193 3.74069   4
   8   7  -9 6.32357 3.49123   4
  -9   8   7 5.10649 3.33383   2
   8  -7   9 7.92135 4.14831   1
   9   8  -7 3.85320 2.81809   4
   7  -9   8 10.8267 4.31945   2
  -7  -9  -8 7.10933 3.46513   4
   9  -8   7 10.5572 4.21113   1
   9  -8   7 3.88366 3.06138   2
  -7   9   8 5.28305 2.99857   2
   7  -9  -8 10.0668 4.57364   3
  -8   7  -9 10.7996 3.57122   4
   9   8   7 1.47484 2.64385   1
   7   9   8 12.6029 5.35487   1
  -9  -8   7 11.0095 4.42632   2
  -9   8  -7 12.9473 4.61436   1
   9   8   7 6.85949 2.97947   4
   8  -7  -9 10.1122 4.17271   3
   8   7   9 3.57417 3.51830   1
  -8  -7   9 7.90719 3.76997   2
   8   7   9 6.09479 3.48497   4
   9  -8  -7 33.6931 7.85445   3
  -7  -9   8 9.24082 4.49790   2
  -7   9  -8 12.9436 4.88437   1
  -8   9   1 21.0926 5.60423   2
  -9   1   8 28.8936 7.40093   2
  -9  -1  -8 31.9848 6.58068   3
   1  -8   9 34.7576 7.35310   1
   8  -9   1 34.1884 7.21311   2
  -1  -8  -9 22.8156 5.53723   3
   9  -1   8 28.5256 6.65441   1
   9  -1   8 20.3548 4.60857   4
  -8   9   1 28.9536 5.84266   1
   1   8  -9 23.1693 5.85093   1
  -1   8   9 30.1693 6.74819   1
  -9  -1  -8 36.5577 6.53684   4
   8   9  -1 27.0827 5.16322   4
   1   8  -9 28.8899 5.77049   4
  -8  -9  -1 27.5591 6.25782   3
   9   1  -8 25.0663 5.28009   4
   1  -8   9 28.4023 6.25457   2
   8  -9   1 24.9365 5.88065   3
   8   9  -1 25.5243 5.54912   1
   9   1  -8 30.1441 6.03376   3
   9   1   8 30.0906 5.91907   4
  -1  -8   9 28.0141 6.19942   2
   1   8   9 39.8008 7.82859   1
  -9   1  -8 25.5518 5.04814   4
  -9   1  -8 25.2894 5.43300   3
   1  -8  -9 28.3580 6.59571   3
  -9  -1   8 24.1103 6.19405   2
   9   1   8 36.4902 7.62075   1
   8   9   1 27.5043 5.67239   1
   8   9   1 32.2036 5.50299   4
   9  -1  -8 42.5534 7.52635   3
   9  -1  -8 39.2348 6.32353   4
  -8   9  -1 26.4397 6.35148   2
  -8  -9   1 21.2267 5.34039   3
   8  -9  -1 25.3277 6.02223   3
  -1   8  -9 31.1128 5.56730   4
  -8   9  -1 20.4384 5.04518   1
  -8  -9   1 21.1691 4.86980   2
  -1   8  -9 36.8070 7.64474   1
   8  -9   3 0.60198 2.31304   2
   3  -8   9 1.43052 1.76477   1
   3   8  -9 -0.0892 1.95055   1
   9   3  -8 1.65563 1.80103   4
   3  -8   9 16.3813 4.85963   2
  -9   3   8 0.69519 2.41476   2
  -8  -9  -3 9.41162 4.12302   3
  -3   8   9 3.20583 2.45041   1
  -3   8   9 0.44567 1.47292   2
   8  -9   3 0.84983 1.21727   3
  -8   9   3 0.60873 2.10897   2
  -3  -8  -9 -1.2680 1.12951   3
   9  -3   8 0.57760 1.96833   1
   3   8  -9 2.56087 2.29351   4
   8   9  -3 0.58266 2.02456   4
  -9  -3  -8 5.58968 3.44537   3
  -8  -9   3 -0.0378 1.68616   3
  -8  -9   3 0.31221 1.65715   2
  -3   8  -9 0.41617 1.27984   4
   8   9   3 2.01574 2.20001   1
  -3  -8   9 3.20171 2.37829   2
  -3   8  -9 1.14455 2.38981   1
  -9  -3   8 8.63801 4.38565   2
  -9  -3   8 3.20231 2.76191   3
  -9   3  -8 2.14463 1.74935   4
   3  -8  -9 1.08001 2.20467   3
   8  -9  -3 1.76413 2.55129   3
  -8   9  -3 3.36939 1.95478   1
   9   3   8 19.5178 4.92072   4
   9  -3  -8 0.33619 1.49270   3
   9  -3  -8 3.77188 2.32415   4
   8   9   3 -0.9684 1.32709   4
   3   8   9 3.13085 2.82101   1
   9   3   8 5.04776 2.93743   1
   5   8  -9 9.00177 3.55394   4
  -9  -5  -8 9.57960 4.10996   3
   8   9  -5 8.24175 3.52591   4
   9  -5   8 12.8211 4.43374   1
   9   5  -8 20.4574 5.54604   4
   8  -9   5 8.77240 3.73464   2
  -9   5   8 8.34350 4.21135   2
   5  -8   9 12.5548 4.85902   1
   5  -8   9 16.4046 4.67377   2
  -5   8   9 9.77376 3.48931   1
  -5   8   9 11.7802 4.32864   2
  -5  -8  -9 9.86355 4.16048   3
  -8  -9  -5 10.6034 4.68869   3
  -8   9   5 21.3773 5.67094   2
  -9   5  -8 11.0659 3.59171   4
  -8  -9   5 7.11576 3.46707   2
  -8   9  -5 6.82146 3.40480   1
   5   8   9 14.3208 5.54942   1
   8   9   5 9.41308 3.03253   4
  -9  -5   8 9.54640 4.14359   2
  -5  -8   9 11.4082 4.46848   2
  -5   8  -9 9.45601 4.20438   1
  -5   8  -9 15.8544 4.09135   4
   9   5   8 12.3799 4.16533   4
   8   9   5 14.4041 4.80579   1
   5  -8  -9 13.7859 4.84763   3
   8  -9  -5 12.0611 4.84459   3
   9   5   8 9.19005 4.48358   1
   9  -5  -8 17.2428 5.29931   3
  -8   9   7 4.08796 2.70593   2
  -7   8   9 9.29764 4.21148   2
  -7  -8  -9 6.78237 3.09527   4
   9  -7   8 10.2797 4.28246   1
   9   7  -8 5.20580 3.00662   4
   7   8  -9 10.3942 4.03323   4
  -8  -9  -7 7.19269 4.07634   3
  -9  -7  -8 12.6651 5.01974   3
   7  -8   9 8.84605 4.45522   1
   8  -9   7 4.36706 2.84366   2
   8   9  -7 5.43088 2.96942   4
  -9   7   8 14.5777 5.64763   2
  -7  -8  -9 4.04651 2.87274   3
   7  -8   9 5.36679 3.05261   2
  -8   9  -7 4.15450 3.01197   1
   8   9   7 8.28467 3.97038   1
   9   7   8 9.31241 3.51688   4
   9  -7  -8 5.77995 3.35442   3
  -7  -8   9 11.3113 4.64109   2
  -7   8  -9 8.03167 4.24219   1
  -7   8  -9 12.2124 3.78633   4
   8   9   7 6.79083 3.04709   4
   7  -8  -9 6.43173 3.18016   3
  -9  -7   8 4.71899 2.83746   2
  -8  -9   7 26.3656 6.81803   2
   9   7   8 3.73334 3.01465   1
   7   8   9 8.74739 4.17291   1
   7   8   9 2.46716 2.60587   4
   8  -9  -7 26.5026 6.92782   3
  -9   7  -8 5.08015 3.20922   1
  -9   7  -8 8.44550 3.07066   4
  -9  -9   0 1.38988 2.29730   3
  -9   0  -9 1.19935 2.13577   3
  -9   0  -9 5.38970 2.92982   4
  -9   0   9 2.07125 2.89404   2
  -9   9   0 1.04780 1.90655   1
  -9   9   0 4.54460 3.24354   2
   0  -9  -9 0.55455 1.50237   3
   0  -9   9 -0.2089 1.66250   2
   0   9  -9 0.44573 1.93147   1
   0   9  -9 1.93083 2.11022   4
   0   9   9 4.80887 3.17812   1
   9  -9   0 1.28765 2.07148   3
   9   0  -9 4.55691 2.87193   3
   9   0  -9 1.14768 1.93925   4
   9   0   9 1.60061 2.71677   1
   9   0   9 5.01070 3.08116   4
   9   9   0 0.81974 1.77710   4
  -9  -9  -2 494.288 22.2613   3
   9   2  -9 476.186 19.9916   4
   9  -9   2 469.715 21.6261   2
  -9  -2  -9 465.675 20.5079   3
  -9  -2  -9 491.415 19.8167   4
  -2  -9  -9 520.065 22.6792   3
   9  -2   9 470.712 22.2141   1
  -9   2   9 507.787 24.2159   2
   9  -9   2 478.672 20.9714   3
   2  -9   9 493.352 21.7786   2
  -9   9   2 451.461 21.5851   2
  -2   9   9 518.421 22.7187   1
   2   9  -9 503.998 22.1281   1
   2   9  -9 457.487 18.5929   4
   9   9  -2 453.172 18.4450   4
  -9  -2   9 493.774 22.9696   2
  -2   9  -9 476.889 18.2318   4
  -9   9  -2 503.792 22.2133   2
  -2  -9   9 490.183 22.5084   2
  -2   9  -9 490.876 23.1396   1
   2   9   9 444.315 22.5337   1
   9  -9  -2 516.727 23.2273   3
   2  -9  -9 473.214 22.1021   3
  -9   9  -2 477.172 20.0564   1
   9  -2  -9 474.702 21.1478   3
   9  -2  -9 505.453 19.0404   4
  -9   2  -9 503.190 19.8752   4
  -9  -9   2 472.851 19.4209   2
   9   2   9 491.089 22.7978   1
   9   2   9 489.296 19.8774   4
  -9  -9   2 471.349 20.6044   3
   9   9   2 464.206 20.4833   1
   9   9   2 471.106 18.0765   4
  -9  -9  -4 15.5452 5.26871   3
   4  -9   9 -0.5782 2.15993   1
  -9  -4  -9 1.32973 2.50834   3
  -9  -4  -9 -1.2089 1.47677   4
   9  -4   9 3.01328 2.43989   1
   9   4  -9 -0.5098 1.77759   4
  -9   4   9 2.30102 2.92281   2
   9  -9   4 -2.1073 1.76507   2
  -9   9   4 2.17153 2.40525   2
  -4  -9  -9 -0.1753 1.63816   3
   4   9  -9 -0.0831 1.78845   1
   4   9  -9 -1.7890 1.59501   4
  -4   9   9 0.99898 2.21065   2
  -4   9   9 2.54149 2.49425   1
   9   9  -4 1.44930 2.01148   4
   4  -9   9 1.15256 2.02814   2
  -4   9  -9 3.46173 2.16102   4
   4  -9  -9 4.33444 2.97763   3
  -4  -9   9 1.16369 1.51294   2
  -4   9  -9 1.43997 2.51837   1
  -9  -9   4 4.47635 2.86218   2
   9  -9  -4 1.09409 2.21467   3
  -9   9  -4 0.24231 1.54439   1
   9  -4  -9 5.02359 2.96416   3
  -9  -4   9 0.78549 2.32827   2
  -9   4  -9 1.23407 1.94064   4
   9   4   9 0.94489 2.03102   1
   9   4   9 2.54241 2.65413   4
   4   9   9 -0.1131 2.14962   1
   9   9   4 -1.1775 1.79506   1
   9   9   4 8.70351 3.10306   4
  -9  -9  -6 133.958 12.5372   3
   6  -9   9 132.748 11.2360   2
  -9  -6  -9 117.438 11.4222   3
  -9  -6  -9 128.775 10.0642   4
   6  -9   9 128.618 12.4004   1
   9  -9   6 111.197 10.5930   2
  -9   6   9 129.194 12.4552   2
   9  -6   9 130.584 11.9241   1
  -9   9   6 126.948 11.8980   2
  -6  -9  -9 128.618 11.8235   3
  -6   9   9 132.406 11.6635   2
   9   9  -6 133.054 10.8418   4
   9   6  -9 134.953 11.0745   4
   6   9  -9 122.471 10.2647   4
  -6  -9   9 124.322 11.8321   2
  -9  -6   9 131.489 12.2063   2
  -9  -9   6 120.407 11.2022   2
   6  -9  -9 127.802 12.1510   3
   6   9   9 141.702 13.1957   1
   9  -9  -6 127.053 12.3496   3
  -9   6  -9 128.801 9.98530   4
   9  -6  -9 127.467 11.6654   3
  -9   9  -6 116.810 10.9328   1
  -6   9  -9 117.248 9.17698   4
   9   6   9 109.511 11.1854   1
   9   6   9 122.500 10.0517   4
  -6   9  -9 143.423 12.8825   1
   9   9   6 119.525 11.6472   1
   9   9   6 127.393 9.78894   4
  -9  -9  -8 2.76859 2.82107   3
   8  -9   9 0.72299 2.12251   2
  -9  -8  -9 2.94359 2.82772   3
  -9  -8  -9 1.08692 2.09525   4
   8  -9   9 13.7296 5.34929   1
   9  -9   8 1.32499 2.14409   2
   9   9  -8 2.76560 3.17246   4
  -9   8   9 2.98040 2.96505   2
   9   8  -9 1.73287 2.54696   4
  -9   9   8 1.63187 2.69904   2
  -8  -9  -9 4.52983 3.40181   3
   9  -8   9 3.71560 3.09554   1
   8   9  -9 0.96867 2.29905   4
  -8   9   9 15.8342 5.81968   2
  -8   9  -9 9.55848 4.59673   1
  -9  -8   9 3.60560 3.22630   2
  -9  -9   8 -0.3313 2.08421   2
   8  -9  -9 1.03235 2.03442   3
   8   9   9 0.02497 2.28692   1
   9  -9  -8 -0.2356 1.78457   3
  -9   8  -9 -0.5579 2.01771   1
   9  -8  -9 0.62052 2.41590   3
  -8  -9   9 2.29139 2.46364   2
  -9   9  -8 11.1365 4.65421   1
   9   8   9 -0.5665 2.35420   1
   9   8   9 0.39732 2.23423   4
  -9   8  -9 -0.5479 1.62799   4
   9   9   8 1.40410 2.50630   1
   9   9   8 2.66303 2.33670   4
 -10   0   0 0.64305 1.72285   2
 -10   0   0 0.37937 1.67915   3
   0 -10   0 1.14112 1.50001   2
   0 -10   0 3.87612 2.14826   3
   0   0 -10 3.27644 1.94085   4
   0   0  10 -0.1483 1.50137   1
   0   0  10 1.35404 1.35136   2
   0  10   0 1.84446 2.02806   1
  10   0   0 0.63660 1.99082   3
   0 -10   2 16.4838 4.56515   2
   0 -10   2 24.3485 4.76187   3
   0  10  -2 22.1309 5.21030   1
   0  10   2 22.7730 5.32011   1
   2   0 -10 17.3182 4.00847   4
   2   0  10 19.4657 5.13269   1
   2   0  10 25.5889 4.30595   2
  10  -2   0 20.9857 5.44455   3
  10  -2   0 19.1060 3.88860   4
  10   2   0 17.8941 3.86724   4
   0 -10  -2 24.7980 5.32534   3
  -2   0  10 21.7957 4.75993   2
 -10  -2   0 23.8696 4.93637   2
 -10  -2   0 17.8854 4.88780   3
 -10   2   0 30.0248 5.56641   2
  -2   0 -10 23.6743 4.70645   4
  -2   0  10 24.2587 5.28428   1
   0 -10  -2 36.8555 6.07462   2
  10  -4   0 2127.27 48.9205   3
 -10  -4   0 2133.05 48.3935   3
 -10   4   0 2100.17 46.5772   2
  -4   0 -10 2147.90 44.0734   4
  -4   0  10 2110.80 43.4598   1
  -4   0  10 2121.05 47.8092   2
   0 -10  -4 2155.64 44.2399   2
   0 -10  -4 2145.14 48.4156   3
   0 -10   4 2112.92 47.7225   2
   0  10  -4 2126.17 48.6072   1
   0  10   4 2175.08 48.9316   1
   4   0 -10 2152.49 44.0304   4
   4   0  10 2087.36 49.6414   1
  10   4   0 2091.52 43.6107   4
 -10  -4   0 2115.36 42.5059   2
  10  -6   0 1.69420 2.22409   3
  10   6   0 2.97699 2.20540   4
   0  10   6 0.56662 1.91309   1
   0  10   6 2.54985 2.06428   2
   6   0 -10 2.33045 2.12011   4
 -10   6   0 6.86901 3.38448   2
   0 -10  -6 4.51973 2.92392   3
   0 -10   6 1.42156 1.96383   2
   0  10  -6 2.34119 2.27045   1
   0  10  -6 8.76700 2.48959   4
   6   0  10 1.19037 2.47495   1
 -10  -6   0 13.7451 4.38022   3
  -6   0  10 1.93824 2.79178   2
  -6   0 -10 0.13705 1.19935   4
   0  10  -8 5.77145 3.77881   1
   0 -10   8 9.38161 4.11415   2
  10   8   0 3.13083 2.33852   4
  -8   0 -10 4.37456 2.72016   4
   0  10  -8 6.09013 2.70029   4
   0  10   8 6.77060 3.49747   1
   8   0 -10 4.98378 2.63499   4
   8   0  10 4.78710 3.71760   1
  -8   0  10 11.6002 4.66264   2
   0 -10  -8 2.89346 2.40525   3
 -10  -8   0 10.8113 4.42572   3
 -10   8   0 6.26662 3.24647   2
  10  -8   0 9.47353 4.25324   3
   1   1 -10 293.648 13.1006   4
   1 -10   1 299.243 14.6051   2
   1  -1  10 284.174 12.6071   2
  -1 -10  -1 298.518 14.1812   3
  10   1  -1 279.696 12.7287   4
 -10  -1  -1 291.515 12.8087   2
 -10  -1  -1 276.571 14.6099   3
   1  -1  10 283.639 14.9840   1
  10  -1   1 304.431 12.8857   4
  -1  -1 -10 281.833 11.6530   3
  -1  -1 -10 293.455 12.9144   4
  -1   1  10 294.846 14.6374   1
  -1  10   1 322.944 15.6278   1
   1  10  -1 297.678 15.1400   1
  -1 -10  -1 310.678 13.9681   2
  10  -1   1 316.060 15.7731   3
 -10   1   1 297.925 14.1633   2
  10   1   1 304.111 13.1037   4
 -10  -1   1 291.609 15.0139   3
 -10   1  -1 301.687 13.4047   2
   1   1  10 298.806 15.4381   1
  10  -1  -1 277.872 15.0187   3
   1  10   1 290.483 15.1374   1
  -1 -10   1 305.119 14.4750   2
  -1   1 -10 304.200 13.3480   4
  -1  -1  10 322.487 14.9591   1
   1  -1 -10 291.290 12.7242   4
   1 -10  -1 302.187 14.3767   3
  -1  10  -1 294.417 15.3183   1
   1 -10  -1 285.760 13.9508   2
  10  -1  -1 299.077 12.6122   4
 -10  -1   1 323.338 14.6268   2
   1  -1 -10 302.735 12.1362   3
  -1  -1  10 304.526 13.9703   2
 -10   1  -1 309.223 15.3746   3
   1   1  10 294.967 12.0289   2
  -3   1  10 406.760 16.4185   1
  10  -3   1 392.659 14.4467   4
  10  -3   1 380.045 17.7341   3
  10   3  -1 370.970 15.2870   4
  -1  10   3 406.185 17.9069   1
  -3  -1 -10 405.456 15.6393   4
  -1 -10  -3 393.422 15.4579   2
   1 -10   3 375.500 17.1704   2
  -1 -10  -3 370.613 16.9329   3
   1  10  -3 385.714 17.6311   1
  -3   1  10 404.164 17.4116   2
   1 -10   3 374.705 16.4735   3
   3  -1  10 399.048 18.6111   1
   3   1 -10 372.727 15.3506   4
 -10  -3  -1 372.873 17.5364   3
  -3  -1 -10 389.759 14.3329   3
 -10   3   1 381.739 17.0429   2
  -3  -1  10 379.703 15.7415   1
  -3  -1  10 420.671 17.7499   2
   3  -1 -10 405.971 14.9003   3
   3  -1 -10 383.547 14.9904   4
   1  10   3 379.113 17.6928   1
 -10   3  -1 391.007 16.2899   2
  -3   1 -10 401.597 15.7766   4
  -1 -10   3 389.386 17.0432   2
  -1  10  -3 363.108 17.2874   1
   1 -10  -3 398.538 16.3872   2
   1 -10  -3 386.224 17.3777   3
   3   1  10 374.295 18.1937   1
  10   3   1 358.176 15.0108   4
  10  -3  -1 399.016 18.4273   3
 -10  -3   1 387.194 15.8153   2
 -10  -3   1 399.258 17.9247   3
  10  -3  -1 395.657 14.2170   4
  -1 -10   3 374.890 15.6195   3
   5  -1  10 459.495 21.0229   1
   5   1 -10 497.023 18.3899   4
 -10  -5  -1 476.087 20.5141   3
  10  -5   1 483.909 15.8220   4
  10  -5   1 459.010 20.1460   3
  -1  10   5 478.780 18.1635   2
 -10   5   1 519.519 20.8661   2
  -5  -1 -10 471.396 17.1732   3
   1 -10   5 483.448 20.4807   2
   1  10  -5 488.039 20.6031   1
  -1 -10  -5 469.206 16.9013   2
  10   5  -1 482.292 18.2414   4
  -1 -10  -5 486.228 20.6793   3
  -5  -1 -10 470.137 17.7711   4
  -5   1  10 501.403 21.0337   2
   1  10  -5 501.412 15.9641   4
  -1  10   5 488.486 20.6493   1
   5  -1 -10 518.681 18.2402   4
  -1  10  -5 510.434 21.3952   1
   1  10   5 457.615 16.5727   2
  -5   1 -10 476.602 18.0160   4
  -1 -10   5 483.135 20.4689   2
   1  10   5 471.188 20.6649   1
  -5  -1  10 457.432 20.2340   2
  10  -5  -1 470.068 15.2161   4
 -10  -5   1 465.070 17.4650   2
  10   5   1 495.796 18.3688   4
   1 -10  -5 474.569 20.5089   3
 -10   5  -1 506.840 19.9517   2
   5  -1 -10 486.308 18.1347   3
  10  -5  -1 497.411 21.2968   3
 -10  -5   1 470.973 20.1268   3
   1 -10  -5 479.335 18.1839   2
   5   1  10 485.779 21.7598   1
   1  10  -7 407.110 15.9709   4
   1 -10   7 420.067 19.7736   2
 -10   7   1 380.513 18.8808   2
  -7  -1 -10 389.594 16.9882   3
  -7   1  10 387.790 20.0196   2
   1  10  -7 408.358 19.5879   1
  10   7  -1 403.646 17.1336   4
  -7  -1 -10 372.070 16.5677   4
   7  -1  10 408.529 20.5604   1
   7   1 -10 399.156 17.4003   4
 -10  -7  -1 434.002 20.1025   3
  -1  10   7 382.743 16.5280   2
  -1 -10  -7 393.931 19.5121   3
  10  -7   1 393.943 19.3101   3
  -1  10   7 384.227 19.2601   1
  10   7   1 418.000 17.2872   4
   7  -1 -10 415.887 17.1563   4
 -10   7  -1 399.642 18.8222   2
   7   1  10 422.619 20.9509   1
  10  -7  -1 411.528 20.0935   3
   7  -1 -10 402.147 17.6155   3
   1  10   7 414.402 20.2958   1
  -1  10  -7 413.249 20.2936   1
  -1  10  -7 407.680 15.4603   4
  -1 -10   7 409.708 19.7756   2
  -7   1 -10 409.858 17.3794   4
   1 -10  -7 434.908 20.4015   3
 -10  -7   1 416.367 19.4259   3
  -7  -1  10 406.595 20.1640   2
  -9  -1 -10 270.565 14.6705   4
  -1 -10  -9 264.961 16.7347   3
   9  -1  10 261.824 17.0462   1
  -9   1  10 271.191 17.8589   2
   1 -10   9 256.214 16.3667   2
   9   1 -10 276.119 15.0363   4
   1  10  -9 257.437 16.3373   1
   1  10  -9 289.895 14.5497   4
  -1  10   9 275.023 17.0733   1
  10   9  -1 263.206 14.2430   4
 -10  -9  -1 271.336 16.7875   3
  10  -9   1 261.135 16.1670   3
  -9  -1 -10 263.476 15.1749   3
 -10   9   1 277.646 17.0263   2
 -10   9  -1 268.211 16.6547   2
  -1 -10   9 279.520 16.9908   2
  -9  -1  10 274.029 17.6832   2
   1  10   9 272.634 17.4829   1
  10  -9  -1 240.722 16.2930   3
 -10  -9   1 259.812 15.9146   3
  -1  10  -9 257.914 16.8214   1
  10   9   1 270.629 14.1190   4
   9  -1 -10 271.271 15.5203   3
   9  -1 -10 281.051 14.8081   4
  -9   1 -10 245.825 14.1672   4
   1 -10  -9 258.718 16.6061   3
   9   1  10 257.899 16.9073   1
  -1  10  -9 271.353 13.9838   4
   2 -10   0 28.5329 5.74792   2
   0   2 -10 19.1227 4.30316   4
 -10   0   2 21.5775 5.24340   3
 -10   0   2 17.9930 4.53371   2
  -2 -10   0 32.6314 5.68289   3
  -2  10   0 19.6010 5.31238   1
   0  -2 -10 24.4657 4.67335   3
   0  -2 -10 25.0442 4.64448   4
   0  -2  10 22.9387 5.21438   1
   0  -2  10 32.5859 5.60223   2
 -10   0  -2 18.3384 4.85593   3
   0   2  10 18.7789 4.91539   1
   0   2  10 22.4651 4.40936   2
 -10   0  -2 18.3420 3.81928   2
   2 -10   0 21.5333 4.93795   3
   2  10   0 15.1442 4.33675   1
  10   0  -2 27.2596 6.32868   3
  10   0  -2 21.5046 4.40072   4
  -2 -10   0 23.1978 4.85921   2
 -10   2   2 3.73716 2.58550   2
   2 -10   2 2.03743 1.81126   2
   2  -2  10 2.73383 1.91161   2
  10  -2   2 7.29086 3.69383   3
   2   2 -10 1.24542 1.56802   4
 -10  -2  -2 0.54771 1.72192   3
   2 -10   2 3.14347 2.09906   3
  10  -2   2 2.79533 1.97451   4
  -2   2  10 5.12386 2.66009   1
  -2   2  10 3.56458 2.30375   2
  -2 -10  -2 2.87044 1.98953   2
  -2  -2 -10 1.69679 1.39564   4
  -2  -2 -10 5.83145 2.61669   3
  -2 -10  -2 1.19009 1.73094   3
  10   2  -2 1.66685 1.58820   4
   2  -2  10 2.74730 2.57286   1
  -2  10   2 4.31714 2.26580   1
   2  10  -2 -0.4510 1.14175   1
  -2  10  -2 4.21279 2.56199   1
  -2 -10   2 3.26336 2.01569   2
 -10  -2   2 2.22734 2.29508   3
  10   2   2 2.28813 1.88578   4
   2   2  10 2.05314 2.36269   1
  -2   2 -10 -0.1866 0.98728   4
  10  -2  -2 2.38386 1.81688   4
  -2  -2  10 2.71757 2.13671   1
 -10   2  -2 10.6513 3.78082   3
   2  -2 -10 1.22196 1.59776   3
  10  -2  -2 1.44802 2.19313   3
 -10   2  -2 21.0184 4.61387   2
 -10  -2   2 23.1093 5.49714   2
   2 -10  -2 8.49158 3.31795   2
   2 -10  -2 4.31834 2.64210   3
  -2 -10   2 1.46572 1.60861   3
   2  -2 -10 2.29771 1.76625   4
   2  10   2 3.82311 2.75950   1
  -2  -2  10 -0.6617 1.41775   2
   2  10  -4 2444.67 52.8617   1
  -4   2  10 2442.12 49.1401   1
 -10  -4  -2 2443.35 53.7794   3
  -4   2  10 2451.08 53.0072   2
  -4  -2 -10 2453.14 48.4901   3
   4   2 -10 2487.23 49.8730   4
  10  -4   2 2456.76 46.3088   4
 -10   4   2 2427.60 53.0517   2
  -2  10   4 2498.22 53.2305   1
  -2 -10  -4 2432.48 46.6805   2
  -2  10   4 2482.54 50.5635   2
  -2 -10  -4 2508.42 53.9047   3
  10   4  -2 2517.80 49.8260   4
   4  -2  10 2435.72 55.1302   1
  10  -4   2 2474.16 53.3263   3
  -4  -2 -10 2404.81 48.2925   4
   2 -10   4 2470.95 53.2218   2
   2  10  -4 2437.34 44.7213   4
   4   2  10 2504.57 55.7663   1
   2 -10  -4 2486.54 50.8179   2
  -4  -2  10 2400.98 52.8717   2
 -10   4  -2 2480.42 50.4100   2
   2  10   4 2477.29 54.4403   1
   4  -2 -10 2432.13 49.3081   3
  -4   2 -10 2427.20 49.0604   4
   2 -10  -4 2535.88 54.0186   3
 -10  -4   2 2509.18 50.7283   2
 -10  -4   2 2462.12 52.9575   3
  10  -4  -2 2444.20 54.6838   3
  10   4   2 2439.82 48.8005   4
  -2 -10   4 2438.05 52.5209   2
  -2  10  -4 2529.22 54.2644   1
  -4  -2  10 2495.70 48.6706   1
   4  -2 -10 2499.00 47.8274   4
  10  -6   2 17.3561 3.73947   4
   2  10  -6 10.5883 3.93716   1
   2  10  -6 18.1854 3.92831   4
 -10  -6  -2 25.9999 6.05727   3
  -6   2  10 26.6631 6.47220   2
  10   6  -2 22.7647 5.18014   4
  -2  10   6 21.5421 5.10094   2
   6  -2  10 16.4941 5.39407   1
 -10   6   2 16.1553 4.73707   2
  -6  -2 -10 19.2672 4.57956   3
  -6  -2 -10 13.4502 3.79447   4
   2 -10   6 19.4831 5.51170   2
   6   2 -10 13.3470 4.04349   4
  10  -6   2 21.2247 5.42247   3
  -2  10   6 15.8840 4.64346   1
  -2 -10  -6 11.7420 4.36418   3
 -10  -6   2 16.8555 4.75205   3
   6   2  10 20.4677 6.03072   1
  10  -6  -2 23.8357 6.21033   3
  -2 -10   6 15.3314 4.62215   2
  -6   2 -10 13.5623 3.92172   4
   2 -10  -6 19.8156 5.40174   3
 -10  -6   2 20.2240 4.75354   2
  10   6   2 13.8132 3.84829   4
   2  10   6 15.3690 4.74338   1
   6  -2 -10 22.6583 5.29268   3
 -10   6  -2 17.3284 4.57704   2
  -6  -2  10 13.8472 4.63676   2
  -2  10  -6 24.5607 6.12577   1
   6  -2 -10 19.0926 4.31235   4
  10  -8   2 50.9946 8.62387   2
  -2  10   8 28.1555 6.62843   1
   2  10  -8 36.6499 7.56903   1
 -10  -8  -2 33.4929 7.25427   3
  -8   2  10 22.6123 7.05976   2
  10  -8   2 28.9816 6.56086   3
  -8  -2 -10 30.7876 6.59505   3
   8  -2  10 26.5955 6.87503   1
 -10   8   2 25.1849 6.13139   2
  -2 -10  -8 50.4789 8.59485   3
   8   2 -10 30.4467 6.16733   4
  10   8  -2 29.2988 6.15986   4
   2 -10   8 32.8199 7.18024   2
   2  10  -8 31.7689 5.93289   4
  -8  -2 -10 34.1878 6.27923   4
   8  -2 -10 27.0029 5.79876   3
  -8  -2  10 25.7605 6.52494   2
   8   2  10 31.4725 7.47763   1
   2 -10  -8 36.4949 7.77542   3
 -10   8  -2 40.8620 7.73865   2
  -2 -10   8 24.0623 6.23762   2
  -2  10  -8 30.1356 5.30825   4
 -10   8  -2 38.8741 8.69532   1
  10  -8  -2 41.4744 8.44059   3
 -10  -8   2 46.1951 8.18698   3
   8  -2 -10 23.8079 4.99249   4
  -2  10  -8 35.1765 7.82935   1
  10   8   2 27.3368 5.42833   4
  -8   2 -10 24.3307 5.39261   4
   2  10   8 40.7772 8.34858   1
   3 -10   1 401.594 17.7117   2
  -1  -3 -10 380.426 15.4284   3
  10  -1   3 425.290 15.0970   1
 -10  -1  -3 414.079 18.0865   3
  10   1  -3 408.342 18.3352   3
   1   3 -10 382.561 15.6354   4
   1  -3  10 396.049 18.0766   1
  10  -1   3 382.276 15.2188   4
  -3 -10  -1 390.788 15.4287   2
  -1   3  10 390.844 15.6176   2
   3  10  -1 439.638 18.5339   1
  -3  10   1 385.239 17.3170   1
 -10   1   3 408.287 18.0897   2
   1  -3  10 388.368 15.8806   2
  -3 -10  -1 394.061 16.8450   3
  -1   3  10 395.462 17.9188   1
  10   1  -3 352.924 14.9152   4
  -1  -3 -10 398.000 14.9584   4
  10   1   3 396.371 15.7002   4
   1  -3 -10 411.609 14.9069   4
  -3  10  -1 389.789 17.8756   1
  -1   3 -10 386.517 15.7311   4
  10  -1  -3 383.371 14.8506   4
   3 -10  -1 392.694 17.1402   3
 -10   1  -3 377.142 14.3340   2
   1   3  10 382.770 18.2676   1
  -1  -3  10 398.965 17.2966   1
 -10   1  -3 395.827 17.6455   3
  10  -1  -3 402.881 18.5876   3
 -10  -1   3 391.894 17.7225   2
 -10  -1   3 413.600 18.0567   3
   3 -10  -1 401.768 17.4441   2
  10   1   3 411.538 15.1555   1
   1  -3 -10 394.058 15.8163   3
  -3 -10   1 407.973 16.5495   2
  -1  -3  10 410.800 17.3569   2
   3  10   1 358.958 17.2054   1
  -3 -10   1 368.811 15.4607   3
  -3   3  10 431.888 18.5330   2
  10  -3   3 438.580 16.0860   4
  -3  -3 -10 431.113 16.9829   3
  -3  -3 -10 429.571 16.0957   4
 -10  -3  -3 446.917 19.4180   3
   3 -10   3 452.005 19.4081   2
  10  -3   3 448.648 19.0546   3
  -3 -10  -3 472.480 19.5366   3
   3 -10   3 429.999 17.9160   3
   3  10  -3 465.640 19.3227   1
  -3   3  10 456.808 18.2538   1
  10  -3   3 449.032 16.3120   1
   3  -3  10 425.308 16.1843   2
  -3 -10  -3 430.996 15.6332   2
   3   3 -10 450.588 17.6413   4
   3  10  -3 454.975 14.6744   4
  -3  10   3 458.882 19.1254   1
   3  -3  10 476.818 20.7254   1
 -10   3   3 435.698 19.3112   2
  10   3  -3 473.646 17.9146   4
 -10   3  -3 460.370 19.0149   3
  -3 -10   3 462.836 18.8761   2
   3  10   3 472.121 20.0496   1
 -10  -3   3 463.433 19.3319   3
   3  -3 -10 456.692 15.9206   4
 -10  -3   3 444.809 18.6643   2
  -3  -3  10 442.450 17.4660   1
   3  -3 -10 449.523 17.5399   3
  -3  -3  10 457.905 19.2466   2
  -3   3 -10 426.361 16.8745   4
  -3 -10   3 453.353 16.2184   3
  10  -3  -3 443.252 15.3950   4
  10   3   3 455.796 16.8898   1
   3 -10  -3 449.885 19.3711   3
   3 -10  -3 467.291 19.0511   2
 -10   3  -3 452.578 16.9721   2
  -3  10  -3 435.171 19.3497   1
  10   3   3 475.918 17.5479   4
  10  -3  -3 448.364 20.0850   3
   3   3  10 444.925 20.2688   1
   5  -3  10 391.678 19.6391   1
  10  -5   3 393.596 18.1289   3
 -10   5   3 410.771 19.3377   2
  -3 -10  -5 397.430 18.8499   3
  -5  -3 -10 408.757 16.3188   4
 -10  -5  -3 408.780 19.2842   3
   3  10  -5 412.417 15.3902   4
  -5   3  10 397.595 19.1888   2
  10   5  -3 394.303 16.9657   4
  -5  -3 -10 437.054 17.6834   3
  10  -5   3 393.479 16.2503   1
  -3  10   5 399.745 17.6567   2
   3 -10   5 386.167 18.3756   2
   3  10  -5 403.104 18.3304   1
   5   3 -10 401.070 17.2021   4
  -3  10   5 406.406 18.4125   1
  10  -5   3 381.531 14.8929   4
 -10   5  -3 408.645 17.3605   2
  -3 -10   5 412.925 18.8183   2
   5  -3 -10 406.804 17.4873   3
   3 -10  -5 401.373 19.1582   3
   5  -3 -10 413.712 15.6590   4
  -5  -3  10 424.356 19.4866   2
  -5   3 -10 423.409 17.0195   4
  10   5   3 401.182 17.9132   1
 -10  -5   3 399.109 18.0709   3
   5   3  10 378.923 19.3921   1
  -3  10  -5 373.044 18.6601   1
 -10  -5   3 386.585 17.3261   2
  10  -5  -3 415.499 19.8054   3
  10   5   3 400.441 16.3834   4
 -10   5  -3 384.315 15.8883   1
   3  10   5 379.512 18.9785   1
   7  -3  10 321.343 18.2927   1
  -3 -10  -7 309.983 17.4716   3
  -3  10   7 317.873 17.0669   1
  -7  -3 -10 296.497 15.9338   3
  -7   3  10 329.612 18.8465   2
 -10   7   3 327.092 17.8555   2
   3 -10   7 344.378 17.8441   2
   3  10  -7 298.336 16.3782   1
   3  10  -7 323.841 14.6274   4
  -3  10   7 305.172 15.8593   2
  10  -7   3 308.125 16.4765   3
  -7  -3 -10 326.249 15.3517   4
  10   7  -3 304.855 15.3681   4
 -10  -7  -3 333.405 18.1525   3
  10  -7   3 318.813 16.6701   2
   7   3 -10 348.129 16.5492   4
  -3  10  -7 327.369 18.4132   1
   7  -3 -10 323.800 14.4308   4
 -10  -7   3 333.670 16.1210   2
 -10   7  -3 324.124 16.7823   2
   7   3  10 338.368 18.9373   1
   3 -10  -7 331.846 18.0774   3
   3  10   7 331.833 18.7630   1
  -7   3 -10 331.721 15.5858   4
 -10  -7   3 293.956 16.0605   3
 -10   7  -3 321.845 15.6299   1
  -7  -3  10 314.486 17.8736   2
  10  -7  -3 324.184 18.3173   3
  10   7   3 337.640 15.3024   4
  10   7   3 308.230 23.7710   1
  -3 -10   7 298.941 17.0833   2
   7  -3 -10 315.024 16.3856   3
  -3 -10  -9 238.039 15.9759   3
   3  10  -9 243.031 15.3282   1
   3 -10   9 243.101 15.8480   2
  10  -9   3 228.409 15.0440   2
   9  -3  10 239.211 16.3219   1
   3  10  -9 223.284 13.2344   4
  10   9  -3 256.829 14.4647   4
  -3  10   9 230.517 14.1754   2
  -3  10   9 209.740 14.6195   1
 -10   9   3 270.762 17.3238   2
  -9  -3 -10 229.998 13.6172   4
  -9   3  10 213.407 16.2944   2
 -10  -9  -3 256.371 16.6188   3
  -9  -3 -10 213.881 14.3961   3
   9   3 -10 222.448 13.8911   4
  10  -9   3 227.943 14.8081   3
 -10   9  -3 228.929 14.1601   1
  10   9   3 242.782 13.3158   4
  -9  -3  10 227.042 16.1029   2
  -9   3 -10 235.222 13.8127   4
  -3  10  -9 241.590 16.6053   1
  -3  10  -9 231.562 13.8458   4
   3 -10  -9 257.213 16.7379   3
 -10  -9   3 243.697 14.4716   2
  -3 -10   9 259.296 16.8098   2
  10  -9  -3 239.548 16.5153   3
 -10  -9   3 230.044 14.6793   3
   9  -3 -10 233.456 12.9455   4
   3  10   9 239.779 17.0177   1
 -10   9  -3 237.102 15.5783   2
   9   3  10 224.247 13.7656   4
   9   3  10 221.907 16.0004   1
   9  -3 -10 224.623 14.8573   3
   0   4  10 2087.64 48.0676   1
 -10   0   4 2130.41 49.1343   2
  -4 -10   0 2117.75 43.9550   2
  10   0   4 2138.16 43.8497   4
  10   0  -4 2137.67 48.9578   3
  10   0   4 2099.68 43.5973   1
   4 -10   0 2103.52 46.1287   3
   4  10   0 2023.08 40.0618   4
  -4  10   0 2127.55 47.5808   1
   4  10   0 2090.38 47.4075   1
   0  -4 -10 2193.68 41.7411   4
   0  -4  10 2125.51 47.9168   1
   0  -4  10 2169.69 46.6232   2
  -4 -10   0 2118.16 45.8298   3
   0   4 -10 2094.26 44.0400   4
   0  -4 -10 2084.18 44.6409   3
   4 -10   0 2119.20 47.6802   2
 -10   0  -4 2104.40 47.3524   3
  10   0  -4 2164.35 43.6126   4
  -2   4  10 2475.95 52.0969   1
   4 -10   2 2436.94 49.5011   3
 -10   2   4 2507.55 54.6977   2
   2  -4  10 2420.54 49.6050   2
   4 -10   2 2422.12 52.9325   2
   2   4 -10 2448.84 49.4265   4
  10  -2   4 2485.02 48.5819   4
  10  -2   4 2404.59 48.3557   1
 -10  -2  -4 2440.95 53.1224   3
  -2  -4 -10 2460.45 46.7320   4
   2  -4  10 2468.54 54.4239   1
  -4 -10  -2 2403.65 52.1838   3
   4  10  -2 2460.71 52.2847   1
  -4 -10  -2 2454.82 46.9171   2
   4  10  -2 2446.72 44.3066   4
  10   2  -4 2427.04 53.1230   3
  10   2  -4 2443.91 49.2504   4
  -2  -4 -10 2504.43 50.6919   3
  -4  10   2 2447.69 51.8873   1
   2  -4 -10 2479.78 45.9732   4
 -10   2  -4 2392.92 51.8345   3
  -2   4 -10 2493.29 49.3531   4
   4  10   2 2364.77 52.9142   1
   2  -4 -10 2467.20 50.3309   3
   4 -10  -2 2507.65 53.4880   3
   2   4  10 2443.49 54.8048   1
   4 -10  -2 2440.97 52.4807   2
  10  -2  -4 2570.51 47.5920   4
  -4  10  -2 2491.48 53.6273   1
  -4 -10   2 2429.27 50.6732   2
  10   2   4 2542.59 49.5666   4
  -4 -10   2 2470.60 48.8418   3
  -2  -4  10 2494.29 53.0157   2
  10  -2  -4 2473.48 54.5260   3
  -2  -4  10 2543.59 51.5514   1
 -10  -2   4 2444.56 53.1461   2
 -10  -2   4 2421.20 52.3061   3
  10   2   4 2440.22 49.1178   1
   4  10  -4 1.65803 1.90643   1
   4 -10   4 0.25610 1.66998   2
  10   4  -4 1.83736 2.16673   4
  -4 -10  -4 0.69379 2.26487   3
   4   4 -10 2.37380 2.25985   4
 -10   4   4 -0.2950 1.47051   2
  -4   4  10 1.15755 2.04365   1
  10  -4   4 0.42035 1.33780   4
   4  10  -4 1.21442 1.48729   4
 -10  -4  -4 4.82138 3.04043   3
   4  -4  10 6.31384 3.59878   1
   4  -4  10 5.34566 2.71243   2
  -4  10   4 5.44735 2.99284   2
  -4  -4 -10 6.20609 2.94284   3
  10  -4   4 2.15766 2.02965   1
  10  -4   4 18.5580 5.24962   3
  -4   4  10 7.50525 3.70466   2
  -4  10   4 8.57296 3.23280   1
 -10  -4   4 -0.1939 2.01095   2
  -4   4 -10 7.16368 2.66104   4
  -4  -4  10 -0.2962 1.61791   2
 -10   4  -4 1.57538 1.70818   2
  -4  -4  10 0.69938 1.48434   1
  10   4   4 10.4010 3.17323   4
   4 -10  -4 11.2684 4.07385   3
   4  10   4 4.08633 2.92539   1
  -4  10  -4 2.71081 2.13832   1
   4  -4 -10 0.64792 1.71940   3
  -4 -10   4 2.63547 2.36633   2
   4 -10  -4 6.97461 3.02389   2
  10  -4  -4 3.93605 2.64014   3
  10  -4  -4 2.91311 1.63040   4
 -10   4  -4 18.7067 4.99553   3
  10   4   4 6.27389 2.98266   1
 -10  -4   4 0.63382 1.66976   3
   4   4  10 1.21534 2.30783   1
  -6  -4 -10 1864.10 44.5734   3
  -6  -4 -10 1861.27 41.4941   4
   4  10  -6 1875.71 45.0436   1
  -4  10   6 1839.41 44.6847   2
 -10   6   4 1887.55 47.8642   2
  -4 -10  -6 1877.76 47.4107   3
   6  -4  10 1901.99 48.7962   1
  10  -6   4 1861.37 43.8896   2
  10  -6   4 1841.53 44.2140   3
  10   6  -4 1882.71 43.3357   4
 -10  -6  -4 1869.25 47.7583   3
   4 -10   6 1893.44 46.5869   2
  -4  10   6 1863.80 45.2962   1
  -6   4  10 1831.39 47.7877   2
   4  10  -6 1862.03 40.9103   4
   6   4 -10 1905.52 43.9787   4
   4 -10  -6 1893.89 47.8569   3
  -6   4 -10 1795.95 41.7592   4
 -10   6  -4 1866.68 43.4207   1
  -6  -4  10 1872.74 47.6629   2
 -10   6  -4 1816.76 38.8711   4
  10   6   4 1846.25 41.8625   4
  -4 -10   6 1820.33 46.4904   2
 -10   6  -4 1914.98 44.3338   2
   6  -4 -10 1869.51 45.5318   3
  10  -6  -4 1893.69 48.7578   3
 -10  -6   4 1864.66 44.9332   2
   6   4  10 1897.38 49.3120   1
  -4  10  -6 1862.02 47.8238   1
   4  10   6 1902.34 48.8575   1
 -10  -6   4 1905.13 44.9334   3
  -8  -4 -10 1508.62 38.0137   4
  -8  -4 -10 1429.21 40.4616   3
  -4  10   8 1511.44 40.6090   2
  -8   4  10 1508.48 44.9578   2
  -4 -10  -8 1481.55 42.7272   3
   8   4 -10 1579.78 40.3880   4
  10  -8   4 1462.18 40.7261   2
  -4  10   8 1517.41 41.3579   1
 -10   8   4 1439.78 42.8273   2
  10   8  -4 1485.63 38.6417   4
   8  -4  10 1537.52 44.5002   1
  10  -8   4 1508.64 40.0887   3
   4 -10   8 1448.21 41.2490   2
 -10  -8  -4 1512.31 43.6904   3
   4  10  -8 1504.13 40.6024   1
   4  10  -8 1477.69 37.2827   4
   8  -4 -10 1502.29 41.5016   3
   8   4  10 1482.55 44.1720   1
  10   8   4 1566.58 37.9228   4
 -10   8  -4 1452.80 39.6437   1
  10  -8  -4 1615.82 45.5853   3
  -4  10  -8 1518.21 43.9053   1
 -10   8  -4 1512.97 41.1458   2
 -10  -8   4 1498.01 39.8975   3
  10   8   4 1553.38 41.6923   1
  -4 -10   8 1508.54 43.7015   2
 -10  -8   4 1547.47 40.8772   2
  -8  -4  10 1549.20 44.0598   2
  -8   4 -10 1548.02 38.4983   4
   4 -10  -8 1480.65 43.2676   3
   4  10   8 1529.81 45.2039   1
   1  -5  10 505.532 19.7097   2
 -10   1   5 484.564 21.5633   2
 -10  -1  -5 475.309 19.9326   3
  -5 -10  -1 499.954 19.9279   3
  -1   5  10 483.659 20.5727   1
  -1   5  10 474.173 18.0655   2
  10   1  -5 477.395 18.1754   4
   5 -10   1 488.960 19.2580   3
  -5  10   1 471.093 19.4236   1
   5  10  -1 486.702 15.5729   4
  -1  -5 -10 469.956 16.1813   4
  10  -1   5 478.467 18.0723   4
   1   5 -10 464.172 18.0566   4
   5  10  -1 474.144 19.7748   1
  -1  -5 -10 508.327 19.7103   3
  10   1  -5 472.665 20.1357   3
  -5 -10  -1 496.567 17.5328   2
   1  -5  10 471.247 20.4484   1
   5 -10   1 480.441 20.3413   2
   5  10   1 466.711 14.9069   4
  -5 -10   1 509.821 19.3144   3
  -1  -5  10 487.149 20.2118   2
  -1   5 -10 476.977 18.0429   4
  -5  10  -1 480.701 20.0351   1
   1  -5 -10 495.687 19.4565   3
 -10   1  -5 525.843 20.3654   3
 -10  -1   5 523.459 22.0896   2
  10  -1  -5 441.620 16.9552   4
  -1  -5  10 505.129 20.2364   1
  -5 -10   1 487.772 18.5112   2
  10   1   5 465.662 17.9618   4
   5 -10  -1 491.883 20.6333   2
   5  10   1 492.709 20.4228   1
   1   5  10 447.124 20.6308   1
  10  -1  -5 492.465 20.8502   3
   5 -10  -1 497.566 20.4956   3
  10  -3   5 416.180 16.4884   4
   5 -10   3 397.191 18.6984   2
  -3   5  10 408.534 18.1255   1
 -10   3   5 416.966 19.8260   2
  -5 -10  -3 401.030 18.7735   3
  10   3  -5 396.948 16.9683   4
  -5  10   3 391.734 17.6489   1
  -3   5  10 390.685 17.8161   2
  -3  -5 -10 403.930 15.3568   4
   5  10  -3 396.801 17.7767   1
  -5  10   3 408.158 18.7133   2
  -3  -5 -10 411.075 17.8185   3
 -10  -3  -5 423.895 19.3339   3
   5 -10   3 402.380 18.2143   3
   3   5 -10 381.551 16.7880   4
  10  -3   5 335.323 15.8891   1
   5  10  -3 417.380 15.2027   4
   3  -5  10 411.745 17.2956   2
   3  -5  10 393.596 19.4322   1
  -5 -10   3 416.255 18.2004   2
  -3  -5  10 414.241 17.5973   1
  -3  -5  10 407.931 19.0148   2
  -5  10  -3 431.735 19.3517   1
   3  -5 -10 407.558 17.9691   3
  10  -3  -5 441.861 20.1045   3
  -3   5 -10 398.908 16.4651   4
  10  -3  -5 432.741 15.7213   4
   5 -10  -3 426.077 19.5297   3
  10   3   5 388.103 16.4052   4
 -10  -3   5 384.258 17.6836   3
   5 -10  -3 423.499 19.0677   2
 -10  -3   5 416.913 19.1800   2
   3   5  10 389.272 19.7342   1
 -10   3  -5 411.639 17.8594   3
  -5 -10   3 401.272 16.1652   3
   3  -5 -10 375.537 13.9642   4
   5  10   3 425.794 19.5891   1
  -5  10   5 307.194 15.9044   1
  10   5  -5 342.401 16.3269   4
   5  10  -5 333.338 14.6546   4
  10  -5   5 342.671 16.3636   1
  -5  -5 -10 351.647 17.1969   3
   5   5 -10 355.210 16.5602   4
  -5 -10  -5 366.012 18.7000   3
   5  10  -5 323.768 16.2882   1
  -5  -5 -10 315.411 14.2687   4
 -10  -5  -5 340.848 18.1220   3
 -10   5   5 333.888 18.1553   2
   5 -10   5 342.494 17.7091   2
  -5   5  10 327.527 17.7566   2
  10  -5   5 316.818 14.1587   4
  -5  10   5 340.291 17.3269   2
   5  -5  10 362.489 19.1455   1
   5  10   5 341.679 18.4175   1
 -10   5  -5 354.199 16.6235   3
  10  -5  -5 338.330 18.4152   3
   5 -10  -5 326.575 17.9109   3
  -5  10  -5 331.640 17.7464   1
 -10  -5   5 322.925 16.0982   3
 -10   5  -5 333.693 15.5131   2
 -10   5  -5 344.498 14.7155   4
 -10  -5   5 331.901 17.1539   2
  10   5   5 327.770 16.4718   1
  10   5   5 344.081 15.6098   4
  -5  -5  10 326.105 17.8122   2
  -5   5 -10 340.569 15.4806   4
  -5 -10   5 352.589 17.8719   2
   5  -5 -10 336.808 17.1492   3
   5   5  10 346.799 18.9800   1
   7  -5  10 253.424 16.5947   1
  -7  -5 -10 245.988 15.2287   3
  -5 -10  -7 233.814 15.6992   3
 -10   7   5 236.242 15.8795   2
  -7   5  10 261.982 16.9663   2
  10   7  -5 253.168 14.5372   4
 -10  -7  -5 238.651 15.9987   3
   5  10  -7 268.779 13.8841   4
  -5  10   7 242.811 14.5283   1
  -5  10   7 233.965 14.7270   2
   5 -10   7 238.624 15.1108   2
  -7  -5 -10 222.411 12.7230   4
   5  10  -7 266.432 14.9479   1
  10  -7   5 244.872 14.6516   2
   7   5 -10 259.113 14.6652   4
  -7  -5  10 235.172 15.7430   2
 -10   7  -5 252.549 14.6790   2
 -10  -7   5 237.013 14.9573   2
  -7   5 -10 268.323 14.0956   4
   7   5  10 226.881 16.3744   1
   5 -10  -7 249.278 16.2871   3
   5  10   7 233.945 16.2004   1
   7  -5 -10 254.016 15.5825   3
 -10  -7   5 242.716 14.0896   3
  -5 -10   7 259.392 16.3950   2
  10  -7  -5 236.316 15.9797   3
  10   7   5 254.705 15.3913   1
  10   7   5 248.545 13.4600   4
  -5  10  -7 243.528 16.1180   1
 -10   7  -5 251.000 14.9057   1
  -9  -5 -10 232.767 15.7861   3
   9   5 -10 208.022 13.9596   4
   5 -10   9 199.473 14.3806   2
  10   9  -5 200.135 13.4692   4
 -10  -9  -5 208.747 15.7916   3
  -9  -5 -10 215.014 13.2878   4
   9  -5  10 216.087 15.7619   1
  10  -9   5 210.012 14.5382   2
  -5  10   9 203.698 14.0956   1
  -5  10   9 195.622 13.8633   2
  -9   5  10 211.896 16.4020   2
 -10   9   5 192.268 15.0026   2
   5  10  -9 205.616 13.1879   4
  -5 -10  -9 195.425 14.8614   3
  -5  10  -9 204.323 15.6473   1
  10   9   5 233.306 15.8048   1
  10   9   5 199.217 12.2740   4
  -5 -10   9 211.645 15.7246   2
   9  -5 -10 203.827 14.8136   3
  10  -9  -5 209.391 15.8319   3
   5  10   9 202.299 15.9653   1
  -9   5 -10 193.072 12.7136   4
   9   5  10 198.891 13.1727   4
   5 -10  -9 233.381 16.3942   3
 -10   9  -5 206.099 14.3289   1
   9   5  10 196.909 15.2728   1
  -9  -5  10 214.436 15.8451   2
 -10  -9   5 217.012 14.7292   2
   6  10   0 1.40698 2.19983   1
   0  -6  10 1.86469 2.33124   2
   0   6 -10 11.3910 3.67221   4
   0   6  10 1.41228 2.19454   1
   0  -6 -10 6.61933 2.90964   3
  -6 -10   0 10.3228 3.80830   3
 -10   0   6 5.01235 3.05925   2
  -6 -10   0 0.92604 1.81096   2
  10   0  -6 4.88299 2.73457   4
  10   0  -6 0.75953 1.76135   3
   6  10   0 1.50292 1.67543   4
  10   0   6 1.21327 2.21420   1
   6 -10   0 2.49785 2.27109   2
   0  -6 -10 2.72531 1.92431   4
   0  -6  10 0.06565 1.50492   1
 -10   0  -6 5.93466 2.90728   3
  -6  10   0 3.51959 2.36467   1
   6 -10   0 3.55660 2.51193   3
  10   0   6 12.0664 3.78859   4
  10   2  -6 18.7953 5.06311   3
  10  -2   6 20.5370 4.81251   4
 -10   2   6 20.7600 5.63874   2
  10  -2   6 16.0487 4.59660   1
 -10  -2  -6 14.0857 4.62157   3
  -2  -6 -10 17.7330 4.76815   3
   6 -10   2 10.9666 4.21199   2
   6  10  -2 17.9651 4.92419   1
   6  10  -2 14.4858 3.58965   4
   2   6 -10 15.7199 4.64435   1
  10   2  -6 17.5563 4.56539   4
  -6  10   2 44.6278 7.66475   2
  -6  10   2 14.4130 4.28294   1
   2   6 -10 16.5633 4.49192   4
   2  -6  10 18.6796 4.67382   2
  -6 -10  -2 18.9190 5.04486   3
  -2   6  10 18.9130 4.83255   2
   2  -6  10 15.3286 4.85618   1
  -2   6  10 14.4859 4.61198   1
  -2  -6  10 24.6776 6.11312   2
   2  -6 -10 34.3814 6.74410   3
  -2   6 -10 15.7901 4.15396   4
   6  10   2 20.1561 5.55509   1
  10  -2  -6 20.8646 5.43650   3
  10   2   6 16.3259 4.88170   1
   2   6  10 19.0841 5.66654   1
  -2  -6  10 15.3655 4.54268   1
  -6 -10   2 15.8751 4.33419   2
  -6 -10   2 21.1051 4.93136   3
 -10  -2   6 19.3336 5.02772   3
  10   2   6 18.3500 4.60791   4
  -6  10  -2 23.5547 5.71595   1
 -10   2  -6 16.8664 4.57335   3
   6 -10  -2 26.4624 5.93721   2
   6  10   2 25.1065 4.34064   4
 -10  -2   6 18.1784 5.31782   2
  10  -2  -6 21.9129 4.54744   4
   6 -10   4 1910.15 46.9068   2
  -4  -6 -10 1890.36 45.7895   3
   6  10  -4 1842.18 43.6899   1
  -6  10   4 1876.81 46.4813   2
   4   6 -10 1933.19 43.9092   4
  10  -4   6 1880.57 44.7884   1
  10  -4   6 1885.18 41.5411   4
   4  -6  10 1835.18 42.9221   2
   6  10  -4 1828.72 40.3895   4
   4  -6  10 1870.34 48.2978   1
  -4   6  10 1891.80 45.9880   2
  10   4  -6 1889.38 44.0146   4
  -4   6  10 1876.84 44.4405   1
  -6  10   4 1911.50 44.3041   1
 -10  -4  -6 1884.53 47.1174   3
  -4  -6 -10 1854.15 39.8029   4
 -10   4   6 1875.41 48.3774   2
  -6 -10  -4 1842.63 46.6881   3
   4   6  10 1943.07 50.1216   1
  -6 -10   4 1839.10 45.4231   2
  10  -4  -6 1936.35 48.4287   3
  10  -4  -6 1921.77 39.2209   4
   4  -6 -10 1833.66 45.7418   3
   6  10   4 1827.25 47.1507   1
  -4  -6  10 1956.52 48.1486   2
  -4  -6  10 1845.95 42.9107   1
  -6  10  -4 1865.92 46.5719   1
   6 -10  -4 1858.58 47.8559   3
 -10  -4   6 1856.60 43.7711   3
 -10   4  -6 1853.05 43.3371   3
 -10   4  -6 1817.02 40.8732   4
  10   4   6 1854.98 42.7294   4
  10   4   6 1786.51 44.5361   1
  -4   6 -10 1895.44 42.2306   4
 -10  -4   6 1851.41 46.8814   2
  -6  10   6 4.16991 2.82418   1
 -10  -6  -6 -0.3970 1.82950   3
  -6  -6 -10 2.38645 1.87405   4
  10  -6   6 3.53483 2.64686   1
  -6   6  10 2.68050 2.74953   2
   6   6 -10 1.07676 2.11801   4
  10   6  -6 3.36435 2.58674   4
  -6  10   6 0.83461 2.19497   2
   6 -10   6 10.1814 4.17625   2
 -10   6   6 1.13008 1.99975   2
  -6 -10  -6 8.03403 3.94081   3
   6  10  -6 -2.1197 1.89404   1
  -6  -6 -10 1.85031 2.20135   3
   6  -6  10 0.71219 1.71172   2
  10  -6   6 1.58358 2.11262   2
   6  -6  10 1.62011 2.36928   1
   6  10  -6 0.13615 1.75540   4
   6  10   6 -1.4631 1.74732   1
   6 -10  -6 -1.2257 1.49581   3
 -10   6  -6 2.34301 2.12184   1
  10   6   6 -0.2297 2.09372   1
 -10  -6   6 1.47378 1.92981   2
   6   6  10 7.07378 3.94488   1
 -10   6  -6 8.56651 3.09928   4
  -6   6 -10 2.64700 1.97709   4
 -10   6  -6 0.31502 1.71774   2
  10  -6  -6 1.57627 2.26215   3
  10   6   6 1.31011 1.89106   4
  -6  10  -6 5.21746 2.71403   1
  -6  -6  10 0.56464 1.78831   2
  -6 -10   6 -1.3871 1.20220   2
  -6 -10  -8 24.5238 6.46610   3
   8  -6  10 46.8683 9.66692   1
 -10  -8  -6 30.2389 7.38769   3
   6  10  -8 30.9874 6.29189   4
   8   6 -10 26.6048 6.24257   4
 -10   8   6 34.2789 7.82093   2
  -8  -6 -10 35.1147 6.51159   4
  10  -8   6 34.4084 7.10321   2
  -8   6  10 47.0323 9.26134   2
  -8  -6 -10 38.3967 8.07844   3
  10   8  -6 35.1479 7.02505   4
   6 -10   8 21.7678 5.56954   2
  -6  10   8 35.2044 7.65790   2
  10   8   6 39.9333 6.82069   4
  -8  -6  10 36.2352 7.80992   2
   6  10   8 27.5677 7.09974   1
   6 -10  -8 37.6812 8.26042   3
  -6  10  -8 36.9064 8.10497   1
 -10   8  -6 41.7619 8.08193   1
  10   8   6 32.2408 7.59597   1
   8  -6 -10 30.7296 7.38376   3
  -6 -10   8 30.2522 7.36309   2
 -10  -8   6 41.1793 8.00139   2
   8   6  10 39.3233 8.54474   1
  10  -8  -6 29.1144 7.08360   3
  -8   6 -10 42.3212 7.22637   4
   7 -10   1 384.598 19.1758   2
  10  -1   7 436.663 17.9310   4
  -7 -10  -1 431.175 19.7626   3
   1   7 -10 414.572 17.5480   4
   7  10  -1 424.109 16.0320   4
  10   1  -7 433.798 19.4654   3
  -7  10   1 389.055 17.8295   1
   1  -7  10 414.432 19.8892   1
   1   7 -10 411.512 19.5351   1
  -1   7  10 393.506 19.4869   1
 -10   1   7 394.299 20.7697   2
  -7  10   1 403.126 19.6173   2
   7  10  -1 414.096 18.4152   1
   7 -10   1 402.436 18.5032   3
  10   1  -7 400.333 17.4606   4
 -10  -1  -7 430.255 19.2946   3
  -1  -7 -10 407.585 19.1609   3
  10  -1   7 388.316 18.5213   1
   1  -7  10 383.877 18.6000   2
 -10   1  -7 406.173 18.1651   3
  -1  -7  10 403.340 19.5596   2
  10   1   7 405.245 17.5024   4
  10  -1  -7 408.381 19.4202   3
   7  10   1 413.572 15.6123   4
   7 -10  -1 391.289 19.3211   3
   7  10   1 395.645 18.7087   1
   1   7  10 425.476 20.9624   1
  10  -1  -7 383.251 16.5241   4
  -7  10  -1 415.026 18.6771   1
  -1   7 -10 412.336 17.1274   4
   1  -7 -10 409.786 19.2299   3
 -10  -1   7 415.697 20.6130   2
   7 -10  -1 376.991 18.8559   2
  -1  -7  10 395.913 18.8925   1
  -7 -10   1 389.126 17.9728   3
  10   1   7 404.465 18.9236   1
  -7 -10   1 393.714 16.8894   2
  -7  10   3 339.043 16.2778   1
  10   3  -7 313.719 15.8023   4
   7  10  -3 310.322 14.2432   4
  -7  10   3 319.091 17.4465   2
  -3  -7 -10 324.371 17.2938   3
   7 -10   3 299.685 17.0001   2
 -10  -3  -7 324.834 17.3930   3
   3   7 -10 332.876 16.0815   4
  10  -3   7 313.919 16.8058   1
  10  -3   7 301.507 14.8899   4
   3  -7  10 326.913 18.3381   1
   3  -7  10 321.285 16.5433   2
   3   7 -10 332.041 16.8063   1
  -3   7  10 314.528 16.1754   2
   7 -10   3 315.674 17.5875   3
  -7 -10  -3 321.225 17.5178   3
  -3   7  10 340.938 17.4037   1
 -10   3   7 316.235 18.5302   2
 -10   3  -7 326.040 15.7840   3
 -10   3  -7 329.827 15.4598   4
 -10  -3   7 324.112 16.1208   3
   7  10   3 329.008 13.6676   4
  -7 -10   3 319.053 16.2910   2
  -3   7 -10 324.060 15.0884   4
  10   3   7 328.705 17.3652   1
  10   3   7 332.556 16.0622   4
  10  -3  -7 313.474 14.1241   4
   3   7  10 316.899 18.4851   1
   7 -10  -3 321.070 18.0401   3
  -3  -7  10 332.419 18.0948   2
   3  -7 -10 343.716 17.7541   3
 -10  -3   7 281.983 16.8505   2
  -7  10  -3 329.631 17.1191   1
   7  10   3 341.927 18.0302   1
  10  -3  -7 336.882 17.9652   3
  -7  10   5 244.947 15.7001   2
  -5  -7 -10 260.793 12.8516   4
 -10   5   7 233.065 16.0687   2
  -7 -10  -5 248.480 16.1433   3
  -5  -7 -10 233.044 15.1555   3
   5  -7  10 249.859 16.4496   1
  10  -5   7 245.074 15.2288   1
   7  10  -5 259.999 13.8161   4
   7 -10   5 245.677 15.3420   2
   5   7 -10 255.295 14.4615   4
  -7  10   5 271.775 14.9686   1
  10   5  -7 239.014 14.3390   4
 -10  -5  -7 247.035 15.8870   3
  -5   7  10 230.716 15.0353   2
   5  -7  10 248.064 14.3512   2
 -10   5  -7 270.142 13.7826   4
 -10  -5   7 231.127 15.3597   2
   7 -10  -5 243.280 16.0678   3
  10   5   7 240.944 13.7079   4
   5   7  10 238.555 16.5846   1
  10   5   7 257.539 16.1489   1
  -7  10  -5 259.820 16.0589   1
   5  -7 -10 229.905 15.1576   3
   7  10   5 242.853 16.0833   1
  -5   7 -10 240.050 13.1988   4
  -5  -7  10 260.278 16.5434   2
  10  -5  -7 244.062 15.9440   3
  -7 -10   5 256.851 15.5526   2
   7 -10   7 215.572 14.7027   2
 -10   7   7 222.799 16.1326   2
   7   7 -10 214.615 13.9196   4
 -10  -7  -7 231.254 16.1562   3
   7  10  -7 224.325 13.5091   4
  -7  -7 -10 217.772 15.2108   3
   7  -7  10 218.706 15.9279   1
  -7 -10  -7 216.810 15.5588   3
  -7  10   7 205.379 14.8853   2
  -7   7  10 217.443 15.5495   2
  10  -7   7 222.502 15.1694   1
  10   7  -7 203.470 13.6434   4
  -7  -7 -10 227.914 12.7949   4
  10   7   7 213.179 15.3020   1
  -7 -10   7 227.804 15.7203   2
   7  -7 -10 194.373 14.6947   3
   7  10   7 219.368 16.1719   1
 -10   7  -7 213.499 12.2720   4
   7   7  10 219.151 16.3470   1
  10   7   7 212.725 13.1876   4
   7 -10  -7 197.194 15.1982   3
 -10  -7   7 224.848 15.6530   2
 -10   7  -7 249.284 16.1333   1
  10  -7  -7 198.633 15.1345   3
  -7  -7  10 221.044 15.8184   2
  -7   7 -10 220.594 12.9574   4
  -7  10  -7 204.074 15.1502   1
  10  -9   7 242.029 16.0924   2
  10   9  -7 262.537 16.1547   4
  -7  10   9 267.596 17.6222   2
  -9  -7 -10 271.428 15.1185   4
  -9   7  10 249.578 17.9713   2
   9   7 -10 249.165 15.6819   4
   7 -10   9 237.258 15.9440   2
 -10   9   7 257.267 18.0751   2
   7  10  -9 253.852 15.4295   4
   9  -7  10 259.514 18.2160   1
 -10  -9  -7 282.307 19.0330   3
  -7 -10  -9 258.474 17.6630   3
  -9  -7 -10 257.180 17.4906   3
   7  10   9 255.830 18.6052   1
  10   9   7 260.366 14.7445   4
  10  -9  -7 270.732 18.3409   3
  -9   7 -10 240.699 14.3190   4
 -10  -9   7 233.569 16.5152   2
   9  -7 -10 265.376 17.7899   3
   7 -10  -9 259.476 18.1778   3
   9   7  10 272.326 18.8406   1
   9   7  10 232.894 14.4412   4
 -10   9  -7 240.807 16.5769   1
  -7 -10   9 257.631 17.8985   2
  -9  -7  10 257.017 17.7070   2
  10   9   7 265.520 17.8595   1
  -7  10  -9 263.357 18.1391   1
   0   8 -10 9.53414 4.10066   1
  10   0  -8 4.24029 2.75187   3
  10   0  -8 5.07266 2.65828   4
   0  -8 -10 7.51968 3.45917   3
 -10   0  -8 6.42581 3.12809   3
  10   0   8 2.69156 2.06700   4
  -8  10   0 14.5087 4.54523   1
  -8  10   0 6.15249 3.32810   2
   8  10   0 4.50127 2.77991   1
   8  10   0 9.61388 3.26963   4
   0   8 -10 6.45926 2.97648   4
 -10   0   8 7.51972 4.19968   2
   0  -8  10 4.59613 2.73974   2
   8 -10   0 12.7968 4.60808   3
  -8 -10   0 4.76281 2.96703   3
   0  -8  10 7.67496 3.71464   1
 -10   0  -8 5.00194 2.97063   4
  10   0   8 6.29510 3.65295   1
   8 -10   0 5.37513 3.17279   2
   0   8  10 5.26638 3.53846   1
  -2   8  10 30.1325 6.69400   1
  10   2  -8 31.1192 6.42382   3
  -8 -10  -2 27.9587 6.86926   3
  10   2  -8 21.8339 5.30023   4
 -10   2   8 22.2014 6.25395   2
  10  -2   8 22.4608 5.78059   1
  -2  -8 -10 35.7917 7.26305   3
   2   8 -10 27.0515 6.29428   1
 -10  -2  -8 28.3976 6.78629   3
   2  -8  10 33.4672 7.60514   1
   8 -10   2 30.7479 6.49551   3
   8 -10   2 41.1006 8.21584   2
  -8  10   2 32.3539 7.27044   2
   2  -8  10 28.7211 6.68717   2
   2   8 -10 33.2211 6.53884   4
  10  -2   8 31.7846 6.19857   4
   8  10  -2 24.1560 4.98509   4
  -8  10   2 27.8926 5.77176   1
   2  -8 -10 59.4527 9.43255   3
   8 -10  -2 23.6947 6.29672   3
  10   2   8 27.7399 6.85008   1
  -8  10  -2 26.4225 5.94291   1
   2   8  10 26.7967 6.75440   1
  -8 -10   2 34.6128 6.55366   2
   8  10   2 28.1875 5.08085   4
  10  -2  -8 28.2789 5.48875   4
  -8 -10   2 40.4781 7.51061   3
  -2   8 -10 32.3143 7.69467   1
 -10  -2   8 28.6719 6.77702   2
 -10  -2   8 28.4325 6.21413   3
 -10   2  -8 47.7337 7.61414   3
 -10   2  -8 30.9450 5.91758   4
  10   2   8 39.5389 6.86521   4
  10  -2  -8 35.4092 7.15976   3
  -2   8 -10 27.0932 5.47884   4
   8  10   2 28.5923 6.41113   1
  -2  -8  10 25.0702 6.44742   2
  -8 -10  -4 1521.78 43.6205   3
   4  -8  10 1511.82 41.0680   2
   4   8 -10 1473.44 39.8516   1
   4  -8  10 1530.70 44.1096   1
   8 -10   4 1513.28 42.4189   2
   8  10  -4 1497.37 37.5335   4
  -4   8  10 1511.18 40.6111   2
  10  -4   8 1526.82 42.6131   1
   4   8 -10 1478.45 38.4504   4
  10   4  -8 1441.52 39.1260   4
  -4  -8 -10 1517.23 42.3770   3
  -8  10   4 1531.23 43.2111   2
 -10  -4  -8 1576.92 43.1430   3
  -4   8  10 1500.50 40.8015   1
 -10   4   8 1589.77 46.1100   2
 -10   4  -8 1536.66 38.2695   4
  -8 -10   4 1497.05 40.6342   2
   4  -8 -10 1492.78 42.4600   3
   4   8  10 1631.40 46.6868   1
   8  10   4 1433.09 34.8864   4
   8  10   4 1520.28 43.0053   1
 -10  -4   8 1497.42 43.3434   2
  -4   8 -10 1528.17 44.2791   1
  10  -4  -8 1491.74 43.1764   3
  -8  10  -4 1503.03 41.6349   1
   8 -10  -4 1531.20 44.4169   3
  -4   8 -10 1503.51 37.2958   4
  10   4   8 1481.47 38.4949   4
  -4  -8  10 1537.29 43.9384   2
  10   4   8 1466.77 42.2547   1
  -6   8  10 39.5714 8.09335   2
   6   8 -10 32.7835 6.56788   4
   8 -10   6 37.8873 7.76098   2
  -8  10   6 22.2591 6.32582   2
   6  -8  10 35.1260 6.98673   2
  -8 -10  -6 32.9185 7.69781   3
 -10   6   8 44.9243 9.39317   2
   6  -8  10 35.1461 7.85165   1
 -10  -6  -8 36.2016 8.27623   3
   8  10  -6 39.0466 7.12606   4
  10  -6   8 36.7171 7.64094   1
  -6  -8 -10 36.2666 6.24777   4
  -6  -8 -10 28.5004 6.93265   3
  10   6  -8 28.2463 6.31883   4
   8 -10  -6 22.7000 6.39869   3
  -6   8 -10 41.2008 8.37114   1
  -6  -8  10 29.5414 6.99345   2
 -10   6  -8 41.1819 7.03254   4
   6  -8 -10 29.0102 7.25033   3
  10   6   8 31.1254 7.37903   1
  -8 -10   6 37.9434 8.08606   2
  -8  10  -6 44.7902 8.96304   1
   8  10   6 26.5391 6.92235   1
  -6   8 -10 36.2820 6.54009   4
  10   6   8 38.0358 7.14323   4
 -10  -6   8 30.0710 7.07983   2
   6   8  10 35.9343 8.26596   1
  10  -8   8 0.36034 2.52793   1
 -10  -8  -8 7.92765 4.09999   3
   8   8 -10 1.35870 2.44368   4
  -8 -10  -8 0.34055 1.81489   3
  -8  10   8 4.54001 3.13699   2
  -8  -8 -10 6.03661 3.13782   4
   8 -10   8 7.34869 3.96884   2
  10   8  -8 0.89804 2.64616   4
   8  -8  10 3.14266 2.50734   1
 -10   8   8 2.42305 2.78702   2
  -8   8  10 2.43145 3.11927   2
   8  10  -8 2.11430 2.67360   4
  -8  -8 -10 6.95389 3.77960   3
  -8  10  -8 -0.9844 2.40022   1
  -8  -8  10 -0.3514 1.62551   2
  -8   8 -10 1.60724 2.36940   1
  -8   8 -10 5.34336 3.37724   4
   8 -10  -8 5.11360 3.41106   3
   8  -8 -10 3.52663 3.09027   3
  10   8   8 8.18693 4.59335   1
  10   8   8 4.13005 2.56264   4
   8   8  10 4.66934 3.75056   1
  -8 -10   8 37.1029 8.75683   2
   8  10   8 0.78137 2.75831   1
  10  -8  -8 2.42389 3.00753   3
 -10  -8   8 -0.2722 2.31812   2
 -10   8  -8 7.30822 4.31009   1
  10   1  -9 281.053 16.0000   3
  -9  10   1 256.970 16.5722   2
  -1  -9 -10 277.420 16.9833   3
   1   9 -10 259.511 16.2779   1
  10  -1   9 266.132 16.8007   1
 -10  -1  -9 256.458 15.3525   3
  -1   9  10 266.804 17.0052   1
   9  10  -1 243.244 13.2771   4
   1  -9  10 293.703 17.1491   2
 -10  -1  -9 284.400 15.2504   4
   1   9 -10 274.007 14.6276   4
  -9 -10  -1 252.908 16.1179   3
  10   1  -9 271.806 15.0227   4
   9 -10   1 264.090 16.5621   2
   9 -10   1 247.573 15.8230   3
 -10   1   9 305.946 19.1223   2
   9 -10  -1 274.510 17.0664   3
  10   1   9 274.134 15.0749   4
  10  -1  -9 292.500 14.9461   4
   9  10   1 255.883 13.3260   4
  -9  10  -1 255.471 16.4078   2
   1  -9 -10 270.095 16.6202   3
  10   1   9 277.970 17.4115   1
  -9 -10   1 274.216 16.0686   3
  -9  10  -1 281.433 15.5571   1
  -1   9 -10 271.326 14.1838   4
  10  -1  -9 308.051 17.1493   3
 -10  -1   9 270.861 17.5775   2
  -1  -9  10 260.021 16.4474   2
 -10   1  -9 274.834 14.9141   4
  -1   9 -10 262.541 17.1354   1
   1   9  10 270.986 17.4315   1
 -10   1  -9 254.433 16.8046   3
   3   9 -10 221.457 14.7753   1
   3  -9  10 241.953 15.3968   2
  -3   9  10 233.380 15.5192   1
  10   3  -9 222.046 13.9713   4
   9 -10   3 237.736 15.6286   2
   9  10  -3 227.292 13.2948   4
   3   9 -10 224.534 13.6347   4
 -10  -3  -9 229.845 15.1363   3
 -10  -3  -9 234.058 13.9458   4
   3  -9  10 218.968 15.8351   1
  10  -3   9 242.408 15.9570   1
 -10   3   9 225.378 16.8535   2
  -9 -10  -3 243.188 16.2570   3
  -3  -9 -10 252.419 16.2501   3
  -9  10   3 204.503 14.9793   2
  -9  10  -3 227.344 14.5190   1
  -9 -10   3 219.012 14.1104   3
  -9 -10   3 228.089 14.0083   2
   9 -10  -3 248.988 16.6346   3
  -3  -9  10 242.605 16.4980   2
  -3   9 -10 220.621 15.8935   1
   9  10   3 224.130 15.0286   1
   3   9  10 235.980 16.7908   1
   3  -9 -10 247.562 16.2399   3
 -10  -3   9 222.612 15.9783   2
  10  -3  -9 217.613 14.9442   3
  10  -3  -9 232.951 12.9498   4
 -10   3  -9 226.630 13.6043   4
  10   3   9 234.030 16.0756   1
  10   3   9 239.237 14.1604   4
  -3   9 -10 264.232 13.8951   4
   9  10   3 222.360 12.3705   4
 -10  -5  -9 189.433 12.6547   4
  -5   9  10 200.642 14.2638   2
   5  -9  10 213.426 16.1201   1
 -10   5   9 204.340 16.1779   2
  10   5  -9 208.229 13.9281   4
   5  -9  10 213.882 14.4458   2
   5   9 -10 186.650 12.8229   4
 -10  -5  -9 216.175 15.4943   3
  -9 -10  -5 198.742 15.4843   3
   9 -10   5 210.505 14.8723   2
   9  10  -5 196.162 13.0375   4
  -5  -9 -10 199.432 14.8164   3
  -9  10   5 200.776 15.1606   2
  10  -5   9 199.521 14.8180   1
 -10  -5   9 198.819 15.2761   2
  -5   9 -10 206.605 12.4686   4
  10   5   9 193.437 14.9667   1
  10   5   9 206.826 13.3384   4
   9  10   5 202.994 12.0923   4
   9  10   5 209.745 15.4855   1
  -5  -9  10 187.674 14.9401   2
  -5   9 -10 210.281 16.0810   1
   5   9  10 201.694 16.1787   1
   9 -10  -5 193.984 15.4185   3
 -10   5  -9 208.143 12.9885   4
   5  -9 -10 227.529 16.0109   3
  -9  10  -5 225.175 15.2131   1
  -9 -10   5 214.495 14.8257   2
  10  -5  -9 195.242 14.8008   3
   7  -9  10 270.310 16.6664   2
  -7  -9 -10 246.135 17.1582   3
   9 -10   7 248.496 16.5372   2
   9  10  -7 242.503 15.2183   4
  -7   9  10 244.816 16.9631   2
 -10   7   9 222.481 17.2309   2
  10  -7   9 256.943 17.4297   1
  10   7  -9 248.580 15.7212   4
  -9 -10  -7 252.684 17.8200   3
 -10  -7  -9 265.057 18.1304   3
   7   9 -10 243.054 15.2959   4
  -9  10   7 246.601 17.5164   2
   7  -9  10 267.522 18.6238   1
 -10  -7  -9 262.719 15.1170   4
  -7  -9  10 257.948 17.9867   2
   9  10   7 250.678 17.8043   1
  10  -7  -9 260.658 17.9666   3
  10   7   9 258.996 15.1673   4
  -7   9 -10 267.043 18.6290   1
 -10  -7   9 276.933 18.2039   2
 -10   7  -9 272.245 17.8369   1
 -10   7  -9 268.085 14.8421   4
   7  -9 -10 256.978 17.7624   3
  10   7   9 280.166 18.6740   1
  -9 -10   7 248.037 16.8984   2
  -9  10  -7 267.396 17.8188   1
   7   9  10 241.614 18.1310   1
   9 -10  -7 221.634 16.9365   3
 -10  -9  -9 231.607 17.6698   3
 -10  -9  -9 241.514 14.7774   4
  10   9  -9 227.328 15.5711   4
   9 -10   9 233.749 16.4611   2
 -10   9   9 219.577 17.5251   2
  -9 -10  -9 231.586 17.6500   3
   9   9 -10 240.238 15.9229   4
  -9  -9 -10 215.570 16.8623   3
   9  10  -9 221.539 15.1777   4
  -9  10   9 228.103 17.5863   2
  -9   9  10 242.571 18.2938   2
   9  -9  10 233.334 18.2190   1
  -9   9 -10 219.436 17.0808   1
  -9  10  -9 236.690 17.4621   1
 -10   9  -9 290.469 19.5512   1
   9  -9 -10 260.777 18.7355   3
   9 -10  -9 220.071 17.4652   3
  -9 -10   9 238.646 17.6787   2
   9   9  10 222.963 18.2249   1
  -9  -9  10 217.826 17.0796   2
   9  10   9 220.375 17.9414   1
  10  -9  -9 229.838 17.5438   3
 -10  -9   9 243.650 17.8748   2
  10   9   9 254.224 19.0491   1
  10   9   9 229.422 14.5691   4
 -10 -10   0 163.719 13.0877   3
 -10   0 -10 141.550 10.9214   4
 -10   0  10 172.849 14.6472   2
 -10  10   0 153.736 13.1283   2
   0 -10 -10 127.838 11.8736   3
   0 -10  10 128.330 11.9074   2
   0  10 -10 138.191 12.5053   1
   0  10 -10 135.409 10.3653   4
   0  10  10 151.407 13.4145   1
  10 -10   0 163.249 13.4138   3
  10   0 -10 148.817 11.1452   4
  10   0  10 137.030 12.4587   1
  10  10   0 146.335 10.5933   4
 -10 -10  -2 2.56293 2.88634   3
  10 -10   2 -0.2849 1.97237   3
 -10  -2 -10 3.93657 3.07207   3
 -10  -2 -10 9.76320 3.84314   4
  10  -2  10 2.92109 2.52173   1
  10   2 -10 -0.7150 2.02334   4
 -10   2  10 -0.9221 2.89833   2
   2 -10  10 0.44938 2.39445   2
 -10  10   2 2.38499 2.63977   2
  -2 -10 -10 1.56146 2.14399   3
   2  10 -10 -0.0148 2.05175   1
   2  10 -10 0.50626 2.12649   4
  10 -10   2 0.97471 2.74537   2
  -2  10  10 3.75391 2.99338   1
  10  10  -2 1.04034 2.56719   4
 -10  10  -2 0.44410 2.58533   2
  -2 -10  10 -0.7177 1.69133   2
  -2  10 -10 0.03430 2.16749   1
   2  10  10 -2.0718 1.73458   1
  10 -10  -2 18.2882 5.74455   3
   2 -10 -10 28.7331 7.03268   3
 -10 -10   2 -0.8526 2.20592   3
  10  -2 -10 16.3778 5.10433   3
  10  -2 -10 -1.7577 1.85841   4
 -10  -2  10 -1.3586 2.26528   2
 -10   2 -10 3.00257 2.36226   4
  10   2  10 0.39092 2.53803   1
  10   2  10 9.56051 4.26629   4
  -2  10 -10 1.93692 2.08767   4
  10  10   2 1.36901 2.00211   4
 -10 -10  -4 1552.50 46.0161   3
  10  10  -4 1512.24 40.2282   4
 -10  -4 -10 1515.91 43.7075   3
 -10  -4 -10 1504.73 40.1236   4
  10   4 -10 1462.81 40.9399   4
   4 -10  10 1490.80 43.4508   2
 -10   4  10 1514.19 47.8296   2
   4  10 -10 1472.25 39.3138   4
  10  -4  10 1498.59 45.1281   1
 -10  10   4 1497.67 45.3019   2
  -4 -10 -10 1502.56 45.2835   3
   4  10 -10 1454.18 41.8348   1
  10 -10   4 1460.29 43.6572   2
  -4  10  10 1477.93 43.1045   1
  -4  10  10 1451.86 45.4975   2
  -4  10 -10 1473.99 46.4007   1
 -10   4 -10 1451.14 39.4045   4
  -4 -10  10 1504.36 45.7881   2
 -10  10  -4 1497.74 42.5844   1
   4  10  10 1494.75 47.0925   1
  10 -10  -4 1546.81 46.5508   3
   4 -10 -10 1481.22 44.9267   3
  10  -4 -10 1514.29 44.6612   3
 -10  10  -4 1498.87 43.7199   2
 -10  -4  10 1480.46 45.1104   2
  10   4  10 1510.12 46.2194   1
  10   4  10 1525.85 40.6793   4
 -10 -10   4 1478.09 41.9179   2
  10  10   4 1552.24 44.7021   1
  10  10   4 1510.44 38.1492   4
 -10 -10  -6 6.79660 4.45182   3
  10   6 -10 0.45230 2.26420   4
 -10  -6 -10 3.87752 3.63372   3
 -10  -6 -10 1.06645 2.15431   4
  10  10  -6 -1.7147 2.32475   4
  10  -6  10 -0.5749 2.22557   1
 -10   6  10 1.45254 3.49814   2
  10 -10   6 0.96610 2.52368   2
 -10  10   6 0.03857 2.35682   2
  -6 -10 -10 -0.8574 1.87392   3
   6 -10  10 1.85717 2.37289   2
   6  10 -10 -0.1241 2.21835   4
  -6  10  10 9.91871 4.32094   2
   6 -10 -10 -4.0300 1.63691   3
  -6 -10  10 -1.5213 1.76253   2
  -6  10 -10 -1.1125 2.15474   1
   6  10  10 0.10696 3.42144   1
  10 -10  -6 -1.6106 2.50433   3
 -10  10  -6 -0.9267 1.92101   1
  10  -6 -10 6.97983 3.53159   3
 -10   6 -10 0.19151 1.83493   4
 -10 -10   6 2.39239 2.59994   2
  10   6  10 0.60671 2.89778   1
  10   6  10 0.98531 2.52366   4
 -10  -6  10 8.00874 4.00513   2
  10  10   6 5.54884 3.80253   1
  10  10   6 1.97563 2.56803   4
 -10 -10  -8 3.14911 3.27572   3
  10   8 -10 3.95766 3.53348   4
 -10  -8 -10 6.49706 4.60089   3
 -10  -8 -10 10.3680 4.18853   4
  10  10  -8 5.41433 3.72063   4
  10  -8  10 4.68448 3.89847   1
 -10   8  10 7.25390 4.94003   2
  10 -10   8 7.70147 4.40185   2
 -10  10   8 17.2131 6.57456   2
  -8 -10 -10 6.13906 3.61829   3
   8 -10  10 3.53040 3.56492   2
   8  10 -10 9.89763 3.95241   4
  -8  10  10 2.54492 3.68312   2
   8 -10 -10 6.43072 3.58914   3
  -8  10 -10 8.03529 4.30130   1
   8  10  10 7.36407 4.62160   1
  10 -10  -8 7.71649 3.75616   3
 -10  10  -8 8.27107 4.10271   1
  10  -8 -10 4.37651 2.58882   3
 -10   8 -10 6.30898 3.24366   1
 -10 -10   8 6.30968 3.51083   2
  10   8  10 5.07963 3.75477   1
  10   8  10 10.3489 4.25660   4
 -10  -8  10 0.47067 2.68336   2
  10  10   8 7.43938 5.06282   1
 -10 -10 -10 1.64461 2.85603   3
  10  10 -10 -0.8555 2.89436   4
 -10  10  10 -1.3704 3.39025   2
 -10  10 -10 0.10661 2.98043   1
  10 -10 -10 -1.2138 2.63729   3
 -10 -10  10 0.65181 2.83527   2
  10  10  10 1.51804 2.99683   1
   0  11  -1 1.17237 2.14228   1
   0  11   1 3.68344 2.71771   1
   1   0 -11 4.36869 2.12573   4
   1   0  11 0.40938 1.91950   1
   1   0  11 1.13815 1.76124   2
  11  -1   0 0.62388 2.14393   3
  11  -1   0 4.18122 2.17128   4
  11   1   0 4.51245 2.61512   4
   0 -11   1 0.14623 1.02219   3
   0 -11  -1 1.88369 1.92075   2
   0 -11  -1 1.77856 1.77168   3
   0 -11   1 1.99945 1.66708   2
  -1   0  11 21.6807 5.30064   1
 -11  -1   0 3.15657 2.10102   2
 -11  -1   0 3.76482 2.76813   3
 -11   1   0 2.60343 2.36725   2
 -11   1   0 1.12334 1.95866   3
  -1   0 -11 0.19317 1.37563   4
  -1   0  11 -0.5526 1.48923   2
   0  11   3 13.5839 4.48077   1
  11  -3   0 0.57132 2.00789   3
  11  -3   0 0.68001 1.48788   4
  11   3   0 4.26593 2.46239   4
   3   0  11 1.35370 1.81736   1
  -3   0  11 4.67183 2.62998   1
  -3   0  11 -0.3939 1.64856   2
   0 -11  -3 5.43175 2.67730   2
   0 -11  -3 1.64484 1.97809   3
   0 -11   3 8.42279 3.53584   2
   0  11  -3 1.92806 2.12482   1
 -11   3   0 2.94426 2.30561   2
   3   0 -11 -1.6618 1.19996   4
 -11  -3   0 7.98017 3.75281   3
  -3   0 -11 6.75479 2.82310   4
 -11   5   0 4.38216 2.56635   2
  11  -5   0 2.23679 2.35707   3
   5   0 -11 0.19441 1.67780   4
 -11  -5   0 1.55385 1.89853   3
   0 -11  -5 2.03843 2.44841   3
   0 -11   5 2.11951 2.23582   2
   0  11  -5 1.30147 1.96718   1
   0  11   5 3.45388 2.56528   1
  11  -5   0 1.31980 1.71783   4
  11   5   0 -0.0503 1.82175   4
   0 -11  -5 1.17095 1.68183   2
   5   0  11 6.14312 3.63884   1
  -5   0 -11 2.45168 2.21283   4
  -5   0  11 4.88129 2.95505   2
   0  11   5 -0.1214 1.00515   2
 -11  -7   0 7.16442 3.67770   3
   0 -11  -7 2.29400 2.16837   3
 -11   7   0 14.8211 4.91609   2
   7   0  11 0.04701 2.11661   1
  -7   0  11 12.0800 4.96256   2
   0 -11   7 3.82341 2.69662   2
  11  -7   0 2.30075 2.39624   3
  11   7   0 1.19744 2.15981   4
   0  11  -7 0.86824 1.96528   1
   0  11   7 -0.7936 1.88124   1
   7   0 -11 3.69594 2.43495   4
  -7   0 -11 0.20840 1.40047   4
  11   9   0 2.04406 2.46674   4
   9   0 -11 3.28711 2.57162   4
   0  11  -9 0.80227 2.43837   1
   0  11   9 -0.9978 1.85964   1
  -9   0  11 2.67761 3.17801   2
  11  -9   0 3.36788 2.59248   3
   0 -11   9 1.08454 2.40769   2
 -11  -9   0 -1.0981 1.82500   3
 -11   9   0 6.16072 3.95149   2
  -9   0 -11 -1.4791 1.58162   4
   9   0  11 3.02789 2.90137   1
   0 -11  -9 4.14876 3.00998   3
   1 -11   0 4.84331 2.49452   2
  -1 -11   0 -0.2337 1.38794   2
  11   0  -1 2.53600 2.48614   3
 -11   0   1 -0.0136 1.73052   2
   0   1 -11 0.67916 1.77990   4
  -1  11   0 2.92067 2.69626   1
   0  -1 -11 0.94850 1.38746   4
   1  11   0 1.83549 2.16264   1
  11   0   1 2.00801 1.96961   4
  -1 -11   0 0.53265 1.60142   3
 -11   0  -1 3.41240 2.27518   2
   0  -1  11 1.48059 1.68207   1
   0  -1  11 -0.2825 0.83286   2
   1 -11   0 1.25096 1.74261   3
   0   1  11 3.09036 1.97230   1
   0   1  11 -0.4680 1.43775   2
 -11   0  -1 14.5254 4.48868   3
  11   0  -1 2.90314 2.00977   4
 -11   0   1 2.67671 2.40638   3
  -2   1  11 493.428 19.9627   1
  -1  11   2 518.195 21.5623   1
   1 -11   2 529.749 21.2354   2
   1 -11   2 503.076 18.3971   3
  11   2  -1 519.931 18.8313   4
   2  -1  11 523.461 21.9868   1
 -11  -2  -1 514.028 21.7059   3
  11  -2   1 509.003 21.6273   3
  11  -2   1 515.336 17.9744   4
  -2   1  11 521.911 20.0297   2
   1  11  -2 521.605 21.7270   1
  -1 -11  -2 565.531 19.9901   2
  -1 -11  -2 576.738 21.7841   3
 -11   2   1 533.241 20.8212   2
   2  -1  11 517.945 20.0504   2
  -2  -1 -11 519.923 18.7431   4
   2   1 -11 531.999 19.1961   4
  -1  11  -2 516.828 21.5403   1
   2  -1 -11 529.604 18.5829   4
  -1 -11   2 534.745 18.7300   3
   1 -11  -2 524.811 20.9852   3
 -11  -2   1 515.967 19.7974   2
 -11   2  -1 498.911 19.0808   2
 -11   2  -1 498.416 21.1685   3
 -11  -2   1 526.109 21.6675   3
   2   1  11 510.991 22.0992   1
  11  -2  -1 509.788 21.9862   3
   1 -11  -2 541.832 20.4951   2
  -2  -1  11 537.198 20.6301   1
  -2  -1  11 547.434 20.8527   2
  -2   1 -11 530.493 19.2764   4
  11   2   1 538.595 19.0280   4
   1  11   2 542.251 22.2581   1
  -1 -11   2 562.893 21.4016   2
  11  -2  -1 507.577 17.7592   4
  11  -4   1 14.0833 3.57931   4
   1 -11   4 18.9273 5.00993   2
  -4   1  11 12.1149 3.84549   1
  -4  -1 -11 15.6931 4.00379   4
  -1 -11  -4 14.5899 3.89209   2
  -1 -11  -4 17.6016 5.38519   3
   4  -1  11 31.8171 6.98598   1
   1  11  -4 12.6337 4.45368   1
   4   1 -11 19.3671 4.74297   4
  -1  11   4 14.5854 4.66634   1
 -11   4   1 20.1288 5.41611   2
 -11  -4  -1 15.6147 4.90366   3
  -4   1  11 14.6138 4.58752   2
  11  -4   1 16.5340 5.44706   3
  11   4  -1 15.9545 4.58008   4
   4   1  11 18.9767 5.55461   1
   1  11   4 15.0470 4.68279   1
 -11  -4   1 15.1915 4.91785   3
 -11   4  -1 18.1621 4.77932   2
   1 -11  -4 11.7021 4.01747   2
   1 -11  -4 15.0628 4.69325   3
  -4   1 -11 14.7284 3.90053   4
  -1  11  -4 13.0614 4.72735   1
   4  -1 -11 14.7592 4.10707   4
  11  -4  -1 21.7237 5.81618   3
  -4  -1  11 13.4406 3.81741   1
  -4  -1  11 12.1987 4.31364   2
  11   4   1 6.50344 2.96768   4
 -11  -4   1 23.2823 4.98055   2
  -1 -11   4 15.4959 4.73936   2
  11  -4  -1 11.0019 3.04447   4
  11   6  -1 313.123 15.5157   4
   6   1 -11 314.353 15.4882   4
  -6   1  11 309.676 17.7080   2
  -1 -11  -6 357.741 18.7803   3
 -11   6   1 308.965 17.0954   2
   6  -1  11 321.732 18.4931   1
   1  11  -6 318.316 17.5653   1
   1 -11   6 310.733 17.3792   2
  -6  -1 -11 317.513 15.2539   4
 -11  -6  -1 301.949 17.3081   3
  -1  11   6 326.022 17.8426   1
  11  -6   1 302.020 17.2801   3
   6   1  11 288.824 17.7348   1
  -1 -11   6 294.099 16.9075   2
   6  -1 -11 320.566 15.2096   4
  -6   1 -11 321.196 15.5100   4
   1 -11  -6 319.249 17.8072   3
 -11   6  -1 302.719 16.4429   2
  11   6   1 324.132 15.4902   4
  11  -6  -1 344.472 18.7310   3
   1  11   6 327.145 18.1803   1
  -1  11  -6 308.815 17.5858   1
  -6  -1  11 285.030 16.9779   2
 -11  -6   1 323.393 17.4714   3
  11   8  -1 8.03201 3.55641   4
  -1 -11  -8 2.30115 2.34370   3
   1  11  -8 0.85591 2.07945   4
   1 -11   8 2.78848 2.84591   2
   8   1 -11 8.33912 3.36887   4
  -8   1  11 3.48370 3.39502   2
   8  -1  11 10.4844 4.80118   1
  11  -8   1 7.28903 3.63285   3
 -11  -8  -1 4.28739 2.98498   3
  -8  -1 -11 5.68687 2.80330   4
   1  11  -8 6.70431 3.26537   1
  -1  11   8 11.0006 4.64696   1
 -11   8   1 7.00647 3.67954   2
  -1 -11   8 19.1719 5.75606   2
  -8  -1  11 4.62530 3.68629   2
  -8   1 -11 10.3345 3.52609   4
   1 -11  -8 6.90378 3.31475   3
 -11   8  -1 9.68945 4.17650   2
  11  -8  -1 5.25976 3.37878   3
  -1  11  -8 0.96547 2.43074   1
   8   1  11 4.38426 3.11472   1
   1  11   8 7.99809 3.84977   1
 -11  -8   1 5.49966 2.82817   3
   8  -1 -11 9.90463 3.70286   4
  11   8   1 5.04626 2.74347   4
  -1  11  10 247.122 17.2498   1
   1 -11  10 212.262 15.8191   2
  11 -10   1 243.054 16.6437   3
  11  10  -1 218.606 13.7186   4
   1  11 -10 206.455 13.2738   4
 -10   1  11 228.170 17.3906   2
  -1 -11 -10 227.154 16.3782   3
 -11 -10  -1 223.857 16.2649   3
  10   1 -11 220.256 14.3456   4
 -11  10   1 234.550 16.8319   2
 -10  -1 -11 229.186 14.6665   4
   1  11 -10 209.997 15.8305   1
  10  -1  11 253.141 17.5184   1
   1  11  10 245.886 17.6748   1
 -11 -10   1 228.007 15.9511   3
 -11  10  -1 232.796 16.4890   2
   1 -11 -10 247.566 17.0416   3
  10  -1 -11 237.468 14.2632   4
  11  10   1 239.258 14.0033   4
  11 -10  -1 244.915 17.1809   3
  10   1  11 235.046 17.2284   1
  -1  11 -10 207.424 16.1350   1
 -10   1 -11 229.944 14.3640   4
 -10  -1  11 236.313 17.4573   2
  -1 -11  10 229.435 16.6442   2
   1  -2  11 513.644 21.5568   1
  -1   2  11 536.761 21.3480   1
  -2 -11  -1 528.515 19.4499   2
   2 -11   1 528.990 21.1385   2
 -11  -1  -2 473.964 20.7627   3
   1   2 -11 524.224 19.1610   4
  -1  -2 -11 498.673 17.9866   4
  11   1  -2 477.338 18.1439   4
  -1  -2 -11 507.888 17.7623   3
  -2 -11  -1 489.041 19.8618   3
   2  11  -1 535.398 21.6954   1
  -2  11   1 531.186 21.5852   1
 -11   1   2 532.342 20.9736   2
  11  -1   2 522.356 18.4759   4
  -1   2  11 521.616 18.9223   2
  11  -1  -2 528.438 18.2353   4
 -11   1  -2 548.152 18.8403   2
  -1   2 -11 530.237 19.3684   4
  -1  -2  11 529.821 20.8426   1
  -2  11  -1 529.030 21.8130   1
  -1  -2  11 528.790 19.9005   2
   2  11   1 525.454 21.8164   1
   1  -2 -11 523.436 17.9996   3
   1  -2 -11 521.993 18.2012   4
 -11  -1   2 510.592 20.7055   2
  -2 -11   1 513.875 19.9773   2
   1   2  11 520.896 21.8888   1
   2 -11  -1 505.725 20.4458   2
   2 -11  -1 517.096 20.5629   3
 -11   1  -2 505.914 21.3247   3
  11   1   2 506.894 18.5884   4
  11  -1  -2 518.219 21.9770   3
 -11  -1   2 516.344 21.4880   3
   2  11  -3 357.412 17.8358   1
  -2 -11  -3 366.712 17.8249   3
  -3  -2 -11 330.943 14.4157   3
  -2 -11  -3 354.799 15.0462   2
  11  -3   2 348.957 17.7939   3
  11  -3   2 366.026 14.8531   4
  -3  -2 -11 387.210 15.7512   4
  -3   2  11 357.340 16.5024   1
  -3   2  11 379.306 17.4639   2
  11   3  -2 357.671 15.9116   4
   2 -11   3 338.984 17.1914   2
 -11   3   2 357.663 17.5359   2
 -11  -3  -2 362.591 18.0529   3
   3   2 -11 343.416 15.8107   4
  -2  11   3 353.776 17.7037   1
   3  -2  11 374.508 18.9190   1
   2 -11  -3 363.810 17.9139   3
  11  -3  -2 358.559 18.6051   3
  -3   2 -11 356.372 15.7810   4
  11   3   2 337.514 15.3325   4
 -11  -3   2 349.180 16.3539   2
 -11  -3   2 360.394 17.8421   3
 -11   3  -2 382.753 16.5090   2
 -11   3  -2 364.760 17.8510   3
  11  -3  -2 361.159 14.4175   4
   3   2  11 359.395 18.7376   1
  -3  -2  11 345.994 15.8932   1
  -2  11  -3 364.252 18.1163   1
   2 -11  -3 342.292 16.5171   2
   2  11   3 341.103 17.7960   1
   3  -2 -11 325.889 14.7345   3
  -3  -2  11 372.333 17.6422   2
  -2 -11   3 363.643 17.1828   2
   3  -2 -11 341.381 14.6458   4
   5  -2  11 338.352 18.8308   1
  -5   2  11 349.744 18.2094   2
  -2 -11  -5 348.335 18.2697   3
  -5  -2 -11 343.469 15.6893   4
  -2  11   5 374.605 17.1811   2
 -11   5   2 359.761 18.3771   2
  -2  11   5 340.700 17.6762   1
   5   2 -11 392.238 17.0327   4
  11  -5   2 376.496 18.7154   3
  -5  -2 -11 347.474 15.6039   3
  11   5  -2 335.968 15.9751   4
 -11  -5  -2 358.768 18.6896   3
   2  11  -5 333.041 17.5675   1
   2 -11   5 353.965 18.1830   2
  11  -5   2 343.326 14.2821   4
  -2 -11   5 378.436 18.6725   2
   5   2  11 356.895 19.5545   1
  11   5   2 343.966 15.7130   4
   2  11   5 321.297 18.0462   1
   2 -11  -5 361.885 18.7347   3
   5  -2 -11 348.092 16.0874   3
   5  -2 -11 353.089 15.4644   4
 -11  -5   2 337.341 17.6318   3
 -11   5  -2 351.369 16.9175   2
 -11  -5   2 337.388 15.9968   2
  -2  11  -5 353.298 18.4086   1
  -5   2 -11 331.470 15.6830   4
  -5  -2  11 326.316 17.6721   2
  11  -5  -2 339.231 18.6448   3
   2 -11  -5 349.621 16.7914   2
  -7   2  11 374.836 20.3362   2
  -2  11   7 373.583 19.5020   1
  -2  11   7 342.266 16.8721   2
   7  -2  11 380.650 20.5563   1
  11  -7   2 375.666 19.4442   3
  -2 -11  -7 363.675 19.5676   3
  -7  -2 -11 384.224 17.3204   4
 -11  -7  -2 393.711 20.2735   3
   2  11  -7 369.923 19.2228   1
 -11   7   2 398.937 20.2752   2
   2 -11   7 376.760 19.5763   2
  -7  -2 -11 392.823 17.6994   3
   7   2 -11 404.252 18.0308   4
   2  11  -7 341.548 15.1204   4
  11   7  -2 392.047 17.8738   4
  -7  -2  11 372.172 20.0112   2
   2  11   7 409.015 21.1458   1
 -11  -7   2 369.528 18.9527   3
   7  -2 -11 394.731 18.3392   3
  11   7   2 386.084 17.1239   4
  -2 -11   7 372.432 19.6971   2
   7   2  11 361.253 20.4348   1
  -2  11  -7 357.687 19.7164   1
   2 -11  -7 373.844 20.0589   3
 -11   7  -2 378.350 18.8737   2
  11  -7  -2 385.160 20.4872   3
   7  -2 -11 384.699 16.6838   4
  -7   2 -11 366.660 17.1834   4
   2 -11   9 301.482 18.4092   2
 -11  -9  -2 286.803 18.2162   3
  -9  -2 -11 330.526 17.0389   4
   2  11  -9 289.062 15.1517   4
 -11   9   2 294.448 18.6309   2
  11  -9   2 320.315 18.4955   3
   9   2 -11 292.423 16.4518   4
  -2 -11  -9 339.141 19.6668   3
  -2  11   9 332.703 19.1592   1
   9  -2  11 305.409 19.2679   1
   2  11  -9 314.293 18.4932   1
  -9   2  11 283.904 18.9951   2
  -9  -2 -11 340.420 24.1703   3
  11   9  -2 325.180 16.8543   4
   9  -2 -11 290.943 16.9363   3
  11  -9  -2 312.220 19.3892   3
 -11   9  -2 312.921 18.5822   2
   2  11   9 313.071 19.5650   1
  11   9   2 318.336 16.0422   4
   2 -11  -9 318.713 19.2512   3
   9  -2 -11 301.767 15.5615   4
 -11  -9   2 305.136 17.8210   3
   9   2  11 324.871 19.9084   1
  -2  11  -9 282.333 18.6055   1
  -9  -2  11 308.604 19.4466   2
  -9   2 -11 299.985 16.2674   4
  -2 -11   9 284.553 17.9909   2
  -3 -11   0 0.30085 1.57950   2
  -3 -11   0 3.33131 2.42148   3
  -3  11   0 12.7469 4.48222   1
 -11   0   3 -0.4657 1.79741   3
   0  -3 -11 3.19708 1.80316   4
   0  -3  11 -0.2585 1.50751   1
   0  -3  11 2.25254 2.22153   2
   0   3  11 6.29692 3.10331   1
   0  -3 -11 0.49580 1.72319   3
   3  11   0 0.51124 1.96503   1
  11   0  -3 -0.8310 1.73680   3
 -11   0   3 -0.3129 2.00234   2
   3 -11   0 17.4545 4.65142   2
   3 -11   0 -0.7817 1.47289   3
 -11   0  -3 1.66564 2.23037   3
   0   3 -11 1.53743 1.73229   4
  11   0  -3 1.51097 1.85221   4
  11   0   3 0.82017 1.81071   4
  -3  11   2 370.293 17.8959   1
  11  -2   3 366.774 15.3335   4
  -3 -11  -2 359.674 17.2380   3
   2   3 -11 354.557 15.9409   4
   2  -3  11 347.504 18.1446   1
   3  11  -2 361.412 17.7703   1
  -2  -3 -11 345.082 15.1703   3
  -3 -11  -2 340.256 14.9208   2
  -2  -3 -11 362.762 15.0146   4
   3 -11   2 357.791 15.6063   3
 -11   2   3 355.516 17.7339   2
 -11  -2  -3 362.935 17.9895   3
   3 -11   2 326.003 16.9213   2
  11   2  -3 379.056 16.2725   4
  -2   3  11 355.130 16.9280   1
 -11   2  -3 382.077 18.2041   3
   2  -3 -11 364.564 14.7532   4
   3  11   2 357.891 18.1138   1
  -2   3 -11 362.499 15.8808   4
  11  -2  -3 372.635 14.9562   4
  -3 -11   2 355.887 15.2478   3
  -2  -3  11 350.609 16.6112   1
  11   2   3 335.875 15.2253   4
   2   3  11 334.594 17.8707   1
   3 -11  -2 343.728 17.1012   3
  -3  11  -2 335.235 17.4104   1
  -2  -3  11 367.499 17.2065   2
 -11  -2   3 368.877 18.0095   3
  -3 -11   2 350.676 16.4893   2
  11  -2  -3 356.761 18.4318   3
   2  -3 -11 365.853 15.8669   3
 -11  -2   3 339.219 16.9797   2
   3 -11  -2 336.001 16.9889   2
  -4   3  11 4.36561 3.10413   2
   4   3 -11 -0.7031 1.68190   4
 -11   4   3 10.9198 4.02495   2
   4  -3  11 -1.3569 1.68817   1
  11  -4   3 1.36388 1.54451   4
  -3 -11  -4 0.80002 2.07926   3
 -11  -4  -3 2.17320 2.23581   3
  11  -4   3 3.87215 2.92404   3
   3 -11   4 5.99016 3.14933   2
  -3  11   4 2.22526 2.19869   2
  -4  -3 -11 2.37839 2.14449   3
  -4  -3 -11 3.13822 2.13701   4
  -4   3  11 2.14731 2.06710   1
  11   4  -3 4.32148 2.85048   4
  -3  11   4 1.61205 1.83133   1
   3  11  -4 13.2022 4.60101   1
  11  -4  -3 0.98157 1.17139   4
  -3 -11   4 1.50434 2.28279   2
  -3  11  -4 5.62672 2.81011   1
 -11  -4   3 11.7720 4.30583   3
  11   4   3 5.76897 2.82850   4
  -4  -3  11 1.95795 2.23614   2
   3 -11  -4 0.93740 1.99729   2
   4   3  11 2.23351 2.32501   1
  11  -4  -3 3.12507 2.66382   3
   3  11   4 0.57542 2.12185   1
   4  -3 -11 2.93553 2.11639   3
   4  -3 -11 1.42199 1.96795   4
  -4   3 -11 3.84130 2.19722   4
  -4  -3  11 3.88434 2.52327   1
 -11  -4   3 10.3194 4.00245   2
 -11   4  -3 9.27608 3.77538   2
   3 -11  -4 2.24558 2.35211   3
 -11   4  -3 3.18413 2.59796   3
   6   3 -11 532.830 21.1780   4
  11  -6   3 569.715 23.4896   3
   3  11  -6 529.150 18.8588   4
   6  -3  11 558.137 25.0460   1
  -6   3  11 533.673 24.2545   2
  -3 -11  -6 520.505 23.5194   3
   3 -11   6 550.977 23.5839   2
  -3  11   6 551.477 22.0019   2
  11   6  -3 555.364 21.5121   4
 -11  -6  -3 565.881 24.1197   3
  -6  -3 -11 536.055 21.1122   3
   3  11  -6 534.663 22.7655   1
  -6  -3 -11 566.119 20.8260   4
 -11   6   3 524.337 23.5141   2
  -3  11   6 537.016 23.1126   1
  -6  -3  11 528.219 23.4509   2
   3  11   6 525.601 24.0741   1
 -11  -6   3 548.675 22.7268   3
  11   6   3 526.977 20.2712   4
  11  -6  -3 577.498 25.1084   3
  -3 -11   6 562.387 23.6229   2
 -11  -6   3 535.850 21.5046   2
  -6   3 -11 572.268 21.2927   4
 -11   6  -3 551.184 22.1073   2
   6  -3 -11 589.157 20.1671   4
   6   3  11 544.779 24.9974   1
   6  -3 -11 561.972 22.2283   3
   3 -11  -6 524.965 23.5780   3
  -3  11  -6 554.321 24.3204   1
  11   8  -3 1.87026 2.73844   4
   8   3 -11 1.96094 2.35015   4
  -3  11   8 3.10921 2.57839   1
   3 -11   8 10.6584 4.59203   2
  -3  11   8 4.59325 2.90290   2
  11  -8   3 2.32329 2.51530   3
   3  11  -8 6.38291 3.17254   1
 -11  -8  -3 0.25976 2.04511   3
  -8  -3 -11 0.29720 1.64304   4
 -11   8   3 1.00742 2.49239   2
  -8   3  11 7.83867 4.40175   2
  -3 -11  -8 2.59665 2.43071   3
   8  -3  11 3.97006 3.03234   1
  -8  -3 -11 2.15861 2.34019   3
   3  11  -8 0.01160 1.48148   4
  -3  11  -8 0.47542 2.09345   1
   8   3  11 3.33365 2.94181   1
  11  -8  -3 0.44402 2.12791   3
   3 -11  -8 2.76846 2.93335   3
   3  11   8 1.61797 2.19456   1
   8  -3 -11 6.39378 3.18068   3
  -8  -3  11 -0.3654 2.13958   2
 -11  -8   3 1.14281 2.31021   3
  -3 -11   8 2.40440 2.68006   2
  11   8   3 -1.5337 1.53032   4
  -8   3 -11 8.40752 3.44650   4
 -11   8  -3 1.94673 2.78816   2
   8  -3 -11 5.80177 2.60089   4
  10  -3  11 184.484 15.2072   1
   3  11 -10 180.597 12.4715   4
 -10  -3 -11 169.296 13.5457   3
  10   3 -11 175.454 13.0972   4
  -3  11  10 205.746 15.5409   1
  -3 -11 -10 188.147 15.2471   3
   3  11 -10 185.579 14.4198   1
 -10  -3 -11 198.392 13.4852   4
  11  10  -3 206.744 13.9340   4
  11 -10   3 204.129 15.4093   2
 -11  10   3 196.925 15.6561   2
   3 -11  10 196.373 15.1320   2
 -10   3  11 184.486 16.4994   2
 -11 -10  -3 185.185 15.2060   3
   3  11  10 195.254 15.9289   1
 -11  10  -3 185.268 14.7975   2
 -11 -10   3 180.608 15.5981   3
  11  10   3 190.869 12.5587   4
  -3  11 -10 220.737 17.2104   1
   3 -11 -10 188.070 15.1676   3
 -10  -3  11 210.509 16.2520   2
  11 -10  -3 199.011 15.9231   3
 -10   3 -11 191.166 13.3071   4
  -3 -11  10 183.826 15.2856   2
  10  -3 -11 206.773 14.9496   3
  10   3  11 200.125 16.1898   1
   4  11  -1 14.5517 4.61220   1
   4 -11   1 12.8853 4.01858   3
  11   1  -4 13.5760 4.71014   3
   1  -4  11 16.9462 4.90977   1
  -4 -11  -1 15.5642 3.96402   2
  -4 -11  -1 14.2599 4.56108   3
  -1   4  11 26.0654 5.90154   1
   1   4 -11 13.5725 3.70086   4
 -11   1   4 10.4833 4.37089   2
   1  -4  11 11.9338 3.83647   2
  11  -1   4 10.3538 3.66758   4
 -11  -1  -4 15.3050 4.40022   3
  -1  -4 -11 21.4967 4.89752   3
  11   1  -4 11.5999 3.87395   4
  -4  11   1 21.1339 5.60366   1
  -1  -4 -11 25.4088 4.78236   4
   4 -11   1 23.5026 5.98131   2
   1  -4 -11 14.7428 4.12445   3
 -11  -1   4 16.1709 4.92407   3
  -4 -11   1 17.5914 4.58220   3
  -4  11  -1 11.9854 4.23480   1
  -4 -11   1 14.8412 4.21980   2
 -11  -1   4 13.1509 4.74700   2
   1   4  11 10.7237 4.56053   1
   1  -4 -11 16.3234 3.86699   4
  11  -1  -4 18.4228 5.41204   3
   4  11   1 21.0665 5.63567   1
  -1   4 -11 26.6651 5.30350   4
   4 -11  -1 15.5393 4.57631   3
   4 -11  -1 15.2522 4.53782   2
  11   1   4 14.1712 4.12381   4
 -11   1  -4 18.4536 5.10992   3
  -1  -4  11 18.6276 5.06836   2
  11  -1  -4 16.1881 4.28579   4
  -1  -4  11 13.2710 4.32299   1
  -3   4  11 -0.6989 2.16249   2
  -4  11   3 3.51903 2.50939   1
   3  -4  11 9.13074 3.81581   1
 -11  -3  -4 5.89204 2.85959   3
  11   3  -4 1.18491 1.98784   4
  -3  -4 -11 1.00506 1.52079   4
   4 -11   3 2.46259 2.35427   2
   3  -4  11 0.76580 1.13765   2
  11  -3   4 11.1533 3.50839   4
  -3  -4 -11 3.34368 2.22280   3
   4  11  -3 4.63412 2.82444   1
  -3   4  11 1.12611 2.19005   1
  -4  11   3 5.50528 3.16637   2
  -4 -11  -3 1.35854 2.61153   3
   3   4 -11 3.30381 2.23574   4
 -11   3   4 0.92063 2.05317   2
 -11  -3   4 3.05041 2.54744   3
  -3  -4  11 -0.2313 1.63763   1
   3  -4 -11 7.99036 3.02347   3
  11  -3  -4 3.52242 2.25271   4
  -4  11  -3 16.1958 4.87321   1
  -3   4 -11 -1.4910 1.32483   4
   3   4  11 6.86319 3.48105   1
   4 -11  -3 9.94954 4.09046   3
   3  -4 -11 4.11235 2.21601   4
 -11   3  -4 5.30511 3.01918   3
 -11  -3   4 2.52400 2.56897   2
   4  11   3 21.1179 5.84959   1
  11  -3  -4 4.97353 2.92445   3
  -4 -11   3 4.40587 2.53108   2
  -3  -4  11 1.96162 2.05850   2
   4 -11  -3 7.01564 3.33398   2
  -4  11   5 5.29452 3.03023   1
  -4  11   5 1.03504 2.30686   2
   5   4 -11 -0.0375 1.58326   4
   5  -4  11 9.51667 4.22905   1
  -4 -11  -5 4.51180 3.18776   3
   4 -11   5 1.21672 2.44004   2
  -5  -4 -11 3.31501 2.25903   3
  -5  -4 -11 5.32080 2.78921   4
  11  -5   4 0.92230 2.38526   3
 -11  -5  -4 0.85597 2.15337   3
  11  -5   4 5.70257 2.64816   4
  11   5  -4 2.00133 2.33031   4
   4  11  -5 8.93331 2.89977   4
  -5   4  11 1.12321 2.62544   2
   4  11  -5 10.1986 3.98295   1
 -11   5   4 2.30917 2.58840   2
  -4  11  -5 2.15466 1.96491   1
  -5   4 -11 2.98627 2.20529   4
   5  -4 -11 -0.7626 1.17548   4
 -11   5  -4 5.04787 2.56969   2
  -4 -11   5 4.62636 2.85230   2
   4  11   5 3.27240 2.94725   1
  11  -5  -4 2.45893 2.47063   3
   5  -4 -11 22.2540 5.25862   3
 -11  -5   4 0.90969 2.19555   2
 -11  -5   4 1.19470 2.58836   3
   4 -11  -5 6.76292 3.39681   3
  11   5   4 3.28329 1.96940   4
  -5  -4  11 15.6766 4.88655   2
   5   4  11 0.70815 2.09807   1
 -11   5  -4 1.21913 2.11971   3
  -7   4  11 25.3753 7.16575   2
 -11   7   4 27.4228 7.16413   2
 -11  -7  -4 15.8837 5.20481   3
  -4 -11  -7 39.8220 8.38264   3
  11   7  -4 18.8814 5.32169   4
  -7  -4 -11 19.6719 4.72897   4
   7  -4  11 18.8288 5.69304   1
   7   4 -11 25.9011 5.75779   4
  -4  11   7 18.3026 5.51926   1
  -4  11   7 24.2903 6.07441   2
  -7  -4 -11 40.3598 7.67702   3
   4  11  -7 19.5232 5.59037   1
   4  11  -7 20.8624 4.66556   4
   4 -11   7 18.0423 5.59190   2
  11  -7   4 23.5065 6.09267   3
   4  11   7 23.8011 6.74365   1
  11  -7  -4 25.6747 6.84609   3
  11   7   4 20.8192 4.87070   4
  -4 -11   7 23.6991 6.22925   2
 -11   7  -4 29.1396 6.43128   2
   4 -11  -7 32.5244 7.43459   3
  -4  11  -7 33.0768 7.81260   1
  -7   4 -11 26.9908 5.74731   4
  -7  -4  11 23.2435 6.59038   2
 -11  -7   4 21.4334 5.71226   2
   7  -4 -11 26.3125 6.38002   3
   7   4  11 19.6822 6.06584   1
 -11  -7   4 20.1098 5.57565   3
   9   4 -11 8.30512 3.53126   4
  -9  -4 -11 4.29395 2.43025   4
   4  11  -9 5.35409 3.05285   4
  11  -9   4 4.33259 3.45572   2
  11   9  -4 5.88979 3.39520   4
   4 -11   9 4.24927 3.15127   2
  -4  11   9 11.8035 4.55923   1
  -4 -11  -9 3.38709 2.95625   3
  -9   4  11 4.21466 4.10917   2
 -11  -9  -4 10.7722 4.87530   3
  -4  11   9 3.66906 2.71435   2
   9  -4  11 -0.1472 1.82265   1
  -9  -4 -11 4.73461 3.35563   3
 -11   9   4 4.25898 3.64775   2
   4  11  -9 5.18165 3.19135   1
  -4  11  -9 15.9057 6.38589   1
   9   4  11 7.27977 3.74746   1
   9  -4 -11 8.66124 3.76610   3
  11  -9  -4 3.09748 3.35275   3
  -9  -4  11 4.91513 3.40901   2
 -11  -9   4 6.56185 2.99558   2
 -11   9  -4 5.77079 3.67790   2
  11   9   4 6.49712 3.11272   4
  -9   4 -11 8.17909 3.51828   4
  -4 -11   9 13.6530 5.39044   2
   4 -11  -9 7.22961 3.70140   3
   4  11   9 2.90001 3.82035   1
  -5  11   0 0.31426 1.84987   1
  11   0   5 -0.8298 1.50883   4
   0  -5  11 2.54962 2.26226   1
   5 -11   0 6.04857 3.40964   2
   5 -11   0 1.14424 1.72072   3
 -11   0  -5 2.68821 2.06558   3
 -11   0   5 2.05596 2.47592   2
  -5 -11   0 2.04838 1.67475   2
  11   0   5 4.00905 2.74182   1
   0   5 -11 11.1285 3.67362   4
   0  -5  11 0.47444 1.83453   2
   0   5  11 0.15640 2.17931   1
  -5 -11   0 2.51585 2.19200   3
   0  -5 -11 3.48034 2.12182   4
   0  -5 -11 2.99133 1.97372   3
  11   0  -5 2.97629 2.08176   4
   5  11   0 17.5463 5.08193   1
  11   0  -5 1.76784 2.08216   3
   5 -11   2 375.492 16.9295   3
  -2  -5 -11 339.887 16.5251   3
   5 -11   2 343.377 17.9823   2
   2   5 -11 351.451 16.4305   4
  -5  11   2 387.308 18.1003   1
 -11   2   5 351.920 19.0205   2
  -5 -11  -2 351.374 17.8180   3
  11   2  -5 358.633 16.4986   4
  -2   5  11 358.645 17.9340   1
  -5  11   2 380.507 18.6136   2
  -2  -5 -11 340.203 14.3711   4
  -2   5  11 353.322 16.7605   2
  11  -2   5 312.633 15.0820   4
  11  -2   5 321.359 15.5896   1
   2  -5  11 352.081 18.7736   1
   2  -5  11 368.011 16.9342   2
   5  11  -2 341.249 17.4837   1
 -11  -2  -5 331.454 17.4972   3
  11   2  -5 356.156 18.2249   3
   5  11   2 362.775 18.6625   1
 -11  -2   5 346.940 17.6089   3
 -11   2  -5 354.799 17.5293   3
  -5 -11   2 366.560 17.0261   2
  11  -2  -5 317.057 17.6582   3
  11   2   5 352.632 16.1343   4
   5 -11  -2 362.809 18.4392   2
   5 -11  -2 354.238 18.1893   3
  -5  11  -2 346.243 17.8847   1
   2   5  11 339.461 18.6430   1
  -2  -5  11 357.295 17.4065   1
  11   2   5 367.078 19.0154   1
  -2  -5  11 383.421 18.6637   2
  -2   5 -11 366.946 16.3694   4
 -11  -2   5 332.179 17.8370   2
  11  -2  -5 368.366 15.5690   4
   2  -5 -11 339.423 16.6017   3
   4  -5  11 1.28876 2.33592   1
 -11   4   5 2.38796 2.30601   2
  11   4  -5 15.2783 4.36315   4
   5  11  -4 3.84922 2.21934   1
 -11  -4  -5 4.25262 2.62108   3
   4  -5  11 0.06998 1.23615   2
  -4  -5 -11 8.34868 3.54055   3
   5 -11   4 5.18854 3.40445   2
  11  -4   5 4.00275 2.40175   4
   5  11  -4 3.31624 2.11019   4
  -5 -11  -4 7.05627 3.42763   3
  -4   5  11 6.49105 3.53228   2
   4   5 -11 5.11078 2.74011   4
  -5  11   4 18.4062 4.92520   1
  -5  11   4 3.33146 2.91771   2
  -4  -5 -11 2.49398 1.98843   4
  -4   5  11 1.68346 2.44626   1
  11  -4   5 0.29216 1.24265   1
 -11  -4   5 3.17441 2.79616   3
  -5 -11   4 1.10210 2.03984   2
  11  -4  -5 1.98442 1.87877   4
   5  11   4 3.87306 3.19209   1
 -11   4  -5 0.79179 2.15707   3
  -5  11  -4 8.55631 3.69902   1
  11  -4  -5 1.23113 1.78773   3
 -11  -4   5 3.24272 2.77178   2
   4   5  11 2.58609 2.87112   1
  -4  -5  11 1.52954 1.89200   2
   4  -5 -11 3.77386 2.60936   3
  11   4   5 2.49938 1.89146   4
  -4   5 -11 -0.5310 1.63745   4
   5 -11  -4 2.83599 2.29717   3
  11  -6   5 309.960 16.4461   1
  -5 -11  -6 318.988 18.5293   3
  11   6  -5 305.217 16.2631   4
  11  -6   5 330.784 17.3094   3
 -11   6   5 293.985 18.0167   2
   6   5 -11 318.754 16.6386   4
  -5  11   6 337.197 17.9644   2
  11  -6   5 335.179 15.1144   4
   5 -11   6 321.730 18.1960   2
  -6  -5 -11 307.515 15.0608   4
  11  -6   5 323.181 16.6496   2
  -6   5  11 335.849 19.1208   2
   6  -5  11 327.618 19.2854   1
   5  11  -6 317.850 17.2442   1
  -6  -5 -11 328.467 17.4680   3
  -5  11   6 341.151 17.7980   1
 -11  -6  -5 325.759 18.7626   3
   5  11  -6 327.615 15.2482   4
  -5 -11   6 305.785 17.7621   2
   6   5  11 330.004 19.7475   1
 -11  -6   5 303.841 16.6067   3
  -5  11  -6 292.646 17.8282   1
   5  11   6 304.614 18.7825   1
  -6  -5  11 351.050 19.4852   2
   6  -5 -11 328.599 17.6762   3
   5 -11  -6 314.288 18.6589   3
  11   6   5 310.284 15.5988   4
  11  -6  -5 306.283 18.4609   3
 -11   6  -5 301.351 16.0024   2
 -11  -6   5 318.236 17.4824   2
 -11   6  -5 320.673 16.7223   1
 -11   6  -5 317.991 16.8235   3
 -11   6  -5 308.476 14.4945   4
  -6   5 -11 330.090 16.1046   4
   5  11  -8 13.7757 4.35770   4
  -5  11   8 22.9225 6.19174   1
  11   8  -5 18.8509 5.24428   4
  -8   5  11 26.2327 7.14108   2
   5  11  -8 21.2573 7.44246   1
  -8  -5 -11 15.4450 4.45254   4
  -5  11   8 14.2745 4.81045   2
 -11   8   5 11.6616 5.21218   2
  -8  -5 -11 25.6989 6.68089   3
   5 -11   8 21.5713 5.79228   2
 -11  -8  -5 14.8479 5.40855   3
   8  -5  11 16.1958 5.69396   1
  -5 -11  -8 16.8018 5.19549   3
   8   5 -11 18.8107 5.10742   4
  11  -8   5 24.6692 6.38833   2
  11  -8  -5 19.8028 6.28016   3
 -11   8  -5 20.8700 6.04055   2
   8   5  11 31.5819 7.76218   1
 -11   8  -5 17.7088 5.23458   1
   5 -11  -8 29.2463 7.52592   3
   5  11   8 20.3456 6.31637   1
   8  -5 -11 19.3806 5.97866   3
  11   8   5 18.5785 5.16533   4
  -5  11  -8 24.1197 6.66336   1
  -5 -11   8 19.7712 5.94086   2
  -8   5 -11 16.3936 4.55504   4
  -8  -5  11 19.1095 6.23973   2
 -11  -8   5 19.7765 5.64934   2
  11  10  -5 159.908 12.9360   4
 -10   5  11 160.018 15.5018   2
 -10  -5 -11 185.470 13.1646   4
 -10  -5 -11 177.859 14.6763   3
 -11 -10  -5 165.665 15.0998   3
  -5 -11 -10 163.994 14.4037   3
   5  11 -10 160.148 12.2449   4
 -11  10   5 163.451 14.8222   2
   5 -11  10 166.547 14.0936   2
  10  -5  11 159.366 14.6354   1
  10   5 -11 151.752 12.6907   4
  11 -10   5 160.353 13.7553   2
  -5  11  10 155.784 13.0733   2
  -5  11 -10 170.771 14.8229   1
   5 -11 -10 175.118 14.9443   3
  11  10   5 151.542 11.3874   4
  -5 -11  10 161.816 14.4812   2
 -11  10  -5 172.179 14.1924   2
  10   5  11 157.180 14.7874   1
  10  -5 -11 177.224 14.4907   3
 -11  10  -5 173.885 14.0134   1
 -10   5 -11 175.130 12.7268   4
 -11 -10   5 165.777 13.4965   2
   5  11  10 164.123 15.5603   1
 -10  -5  11 153.544 14.1249   2
  11 -10  -5 157.643 14.9474   3
  11   1  -6 350.776 18.0983   3
  -6  11   1 338.744 17.0992   1
   1  -6  11 321.301 17.8362   1
   6 -11   1 304.546 16.2573   3
  -6 -11  -1 325.454 17.0414   3
 -11  -1  -6 324.262 17.1448   3
   6 -11   1 315.307 17.6640   2
  -1  -6 -11 321.890 16.7295   3
   1  -6  11 299.220 16.2453   2
 -11   1   6 339.214 19.2614   2
  11  -1   6 352.307 16.1970   4
   6  11  -1 311.152 16.7440   1
  -1   6  11 307.068 17.4230   1
   1   6 -11 320.491 15.6200   4
  11   1  -6 321.807 15.7493   4
  -6 -11   1 315.600 15.4150   2
   6 -11  -1 321.637 17.3591   3
   1  -6 -11 345.062 17.0890   3
  11  -1  -6 314.478 17.6509   3
 -11  -1   6 331.845 18.5003   2
  11  -1  -6 330.099 15.3816   4
  -1  -6  11 314.247 16.9292   1
  -1  -6  11 307.674 16.9686   2
  -1   6 -11 325.485 15.6054   4
 -11   1  -6 333.393 17.0594   3
   6 -11  -1 316.417 17.6481   2
  -6 -11   1 333.801 16.5371   3
  11   1   6 306.369 15.3927   4
   6  11   1 318.274 17.3057   1
  -6  11  -1 325.190 17.3468   1
 -11  -1   6 314.963 16.9657   3
   1   6  11 329.524 18.5673   1
   3   6 -11 554.731 21.9934   1
   6 -11   3 565.192 24.0856   2
 -11  -3  -6 568.042 23.9520   3
   6  11  -3 543.546 22.4622   1
   3   6 -11 559.684 21.6271   4
   3  -6  11 574.704 22.2785   2
   3  -6  11 534.737 24.2358   1
  11   3  -6 544.388 21.5989   4
  -3   6  11 559.160 23.0548   1
  -3   6  11 563.514 22.6463   2
  -3  -6 -11 572.823 23.1266   3
  -3  -6 -11 558.945 19.3056   4
   6  11  -3 532.566 18.8468   4
  11  -3   6 563.405 22.1846   1
  11  -3   6 525.248 20.2642   4
 -11   3   6 594.613 25.8726   2
  -6  11   3 546.429 22.2465   1
  -6  11   3 579.557 24.3015   2
  -6 -11  -3 574.408 24.1531   3
  11  -3  -6 573.137 24.7095   3
  -3  -6  11 577.090 22.2403   1
  -3  -6  11 600.347 24.7568   2
  -6 -11   3 533.606 21.9064   2
   3   6  11 543.394 25.0222   1
   6 -11  -3 560.909 23.8243   2
   3  -6 -11 571.537 23.0596   3
   6 -11  -3 577.674 24.3515   3
 -11  -3   6 551.339 23.9716   2
 -11  -3   6 555.117 22.7218   3
 -11   3  -6 568.348 22.6090   3
  -6  11  -3 537.804 23.2714   1
   6  11   3 564.235 24.4404   1
  11  -3  -6 573.204 19.8308   4
  -3   6 -11 576.186 21.3489   4
  11   3   6 562.095 21.4585   4
  -6 -11  -5 314.330 18.4646   3
  11  -5   6 324.573 17.1449   1
   6  11  -5 313.329 16.6266   1
   6 -11   5 317.169 18.0740   2
  -5  -6 -11 314.767 17.3757   3
   5   6 -11 356.181 17.3636   4
  -6  11   5 326.561 18.1914   2
  -6  11   5 324.584 17.0412   1
   5  -6  11 311.874 16.1721   2
  11   5  -6 318.913 16.8220   4
  -5   6  11 308.125 17.9241   2
  -5  -6 -11 323.531 15.0371   4
  11  -5   6 370.261 16.3380   4
   5  -6  11 290.343 18.1805   1
   6  11  -5 328.250 15.1981   4
 -11  -5  -6 330.504 18.8145   3
 -11   5   6 337.613 19.3403   2
  11   5   6 312.160 17.1655   1
 -11   5  -6 316.673 16.4923   3
   6 -11  -5 310.381 18.5902   3
  -5  -6  11 304.837 18.1730   2
   5   6  11 311.362 19.1667   1
 -11  -5   6 329.197 18.2344   2
  -6  11  -5 333.914 18.6045   1
  11   5   6 316.337 15.9610   4
   6  11   5 308.195 18.6527   1
  11  -5  -6 305.697 18.3484   3
   5  -6 -11 335.163 18.1862   3
  -5   6 -11 306.657 15.6507   4
  -6 -11   5 319.065 17.7610   2
 -11   5  -6 361.449 16.0996   4
 -11  -5   6 308.713 16.7817   3
  -6  11   7 239.386 15.8601   2
 -11  -7  -6 261.475 17.5680   3
  -7  -6 -11 235.435 13.5937   4
  -6  11   7 266.302 15.8942   1
  -6 -11  -7 239.822 16.8257   3
  -7  -6 -11 261.884 16.4399   3
  11   7  -6 274.897 16.1241   4
  -7   6  11 248.208 17.2186   2
  11  -7   6 256.982 15.9895   1
 -11   7   6 242.899 16.9257   2
   7   6 -11 243.398 15.0205   4
   6  11  -7 262.413 14.5239   4
   7  -6  11 272.810 18.1572   1
   6 -11   7 278.323 17.1441   2
  -6  11  -7 246.927 16.9440   1
  11   7   6 247.760 16.0461   1
 -11   7  -6 258.580 15.8750   1
   7  -6 -11 258.388 16.6808   3
   6  11   7 260.855 18.0103   1
  11   7   6 270.336 14.9912   4
  -6 -11   7 264.106 17.3527   2
  -7  -6  11 277.448 17.8335   2
 -11  -7   6 264.407 16.7549   2
   7   6  11 248.387 17.9389   1
  -7   6 -11 246.113 14.2720   4
  11  -7  -6 249.280 17.1506   3
   6 -11  -7 230.525 16.6874   3
  -6  11   9 115.879 11.4007   2
  -9  -6 -11 135.363 12.6699   3
   6 -11   9 137.566 12.8215   2
  -6 -11  -9 134.526 12.8099   3
  -9  -6 -11 130.604 10.7249   4
  11   9  -6 130.979 11.6823   4
   9  -6  11 107.492 11.9667   1
  -9   6  11 126.089 13.3682   2
   9   6 -11 119.861 11.1471   4
   6  11  -9 122.449 10.6804   4
  11  -9   6 130.990 12.1867   2
 -11  -9  -6 122.318 12.6422   3
 -11   9   6 127.263 12.8942   2
  -6 -11   9 109.629 11.7436   2
  11   9   6 131.744 10.7007   4
 -11   9  -6 135.347 12.2896   2
   9   6  11 140.815 13.6403   1
  11  -9  -6 136.987 13.7449   3
   6 -11  -9 147.734 13.6859   3
  -9  -6  11 117.003 12.3371   2
 -11   9  -6 129.484 11.9542   1
  -9   6 -11 140.172 11.1299   4
  -6  11  -9 137.661 13.0934   1
   6  11   9 119.401 13.1260   1
   9  -6 -11 144.601 12.8436   3
 -11  -9   6 130.358 12.1233   2
   0  -7  11 4.64572 2.91467   2
   0   7 -11 1.75459 1.81617   4
 -11   0   7 14.5117 5.26016   2
   7  11   0 3.13121 2.27160   4
  -7 -11   0 10.8626 4.34004   3
   0   7 -11 0.35315 1.93232   1
  11   0   7 1.86955 2.55516   1
   7 -11   0 -1.4202 2.08529   2
  11   0  -7 3.23975 2.54227   3
   0  -7 -11 3.79998 2.62663   3
   0  -7  11 3.78942 2.39828   1
  11   0   7 0.98732 1.92104   4
   0   7  11 7.18722 3.60502   1
   7  11   0 1.33384 2.49780   1
  -7  11   0 2.71191 2.99718   1
 -11   0  -7 1.39403 2.25660   3
   7 -11   0 2.74338 2.48005   3
  11   0  -7 0.51338 1.88363   4
  -7 -11  -2 400.818 20.0575   3
  -7  11   2 376.764 19.8045   2
   2  -7  11 362.393 19.8226   1
   2  -7  11 383.640 18.8225   2
  11  -2   7 400.922 17.7884   4
  -2  -7 -11 369.574 18.8291   3
 -11  -2  -7 380.069 19.2821   3
   7 -11   2 350.716 17.5048   3
   7  11  -2 383.473 15.8495   4
  11   2  -7 384.030 17.9862   4
 -11   2   7 409.740 21.9477   2
  -2   7  11 386.856 19.6760   1
   2   7 -11 391.305 19.4772   1
   7  11  -2 380.662 18.5971   1
  11   2  -7 386.355 19.2124   3
  -7  11   2 385.771 18.2934   1
  11  -2   7 347.690 17.9895   1
   2   7 -11 375.179 17.5916   4
   7 -11   2 374.084 19.6856   2
   7  11   2 376.251 19.5577   1
   2  -7 -11 387.158 19.3282   3
 -11  -2   7 354.123 19.7626   2
   2   7  11 396.294 21.1554   1
   7 -11  -2 396.433 20.4082   3
 -11   2  -7 396.755 17.6273   4
 -11   2  -7 386.261 18.3351   3
  11  -2  -7 374.179 16.5872   4
  -7 -11   2 363.355 17.6561   3
  -7 -11   2 390.703 17.9094   2
  11   2   7 388.812 17.9779   4
  -2   7 -11 390.683 17.4660   4
  11  -2  -7 380.905 20.0931   3
  -2  -7  11 366.646 18.6050   1
   7 -11  -2 354.337 19.2324   2
 -11  -2   7 384.728 18.7707   3
  -2  -7  11 370.730 19.5373   2
  -7  11  -2 388.026 19.1845   1
  11   2   7 374.306 18.8332   1
   7 -11   4 25.6715 6.38433   2
  -4  -7 -11 28.8502 6.52582   3
  -4   7  11 21.4588 6.20896   2
  -4   7  11 28.1853 6.35238   1
 -11  -4  -7 20.9380 6.06306   3
  -7  11   4 18.4815 5.37454   2
   4   7 -11 18.4902 5.15516   4
  -4  -7 -11 23.6187 4.84682   4
  11   4  -7 21.9432 5.43035   4
  11  -4   7 18.1376 5.02115   1
  11  -4   7 14.7279 4.31049   4
   4  -7  11 25.1682 6.03370   2
 -11   4   7 17.1241 5.77723   2
  -7 -11  -4 21.0720 5.87054   3
   4  -7  11 25.0342 6.63540   1
  -7  11   4 25.9188 6.22346   1
   7  11  -4 24.7413 5.26172   4
 -11  -4   7 19.3389 5.45854   3
  11   4   7 22.5512 5.30766   4
  -4  -7  11 22.9422 6.18351   2
 -11  -4   7 33.2318 7.48092   2
 -11   4  -7 23.9686 5.26898   4
   4  -7 -11 32.7714 7.09168   3
  -7 -11   4 19.6321 5.25944   2
  -7  11  -4 22.7031 6.02238   1
  11  -4  -7 25.8131 6.67774   3
  11   4   7 24.6134 5.85228   1
  -4   7 -11 26.3833 5.86214   4
   7 -11  -4 22.9037 6.26254   3
   4   7  11 37.4264 8.63048   1
   7  11   4 30.1203 7.17146   1
  -6  -7 -11 240.935 13.3322   4
   7 -11   6 221.685 15.5140   2
  11   6  -7 257.272 15.5861   4
  -7  11   6 263.337 16.9287   2
  -6   7  11 250.050 16.8372   2
  -6  -7 -11 239.398 16.0631   3
  -7 -11  -6 253.615 17.3181   3
   6   7 -11 236.161 14.7111   4
 -11  -6  -7 255.492 17.2845   3
   6  -7  11 257.972 17.6138   1
 -11   6   7 242.442 17.1227   2
   7  11  -6 263.058 14.5014   4
  11  -6   7 270.400 16.4483   1
  11   6   7 260.784 17.0097   1
   7  11   6 237.995 16.8074   1
  -6  -7  11 252.951 17.1788   2
  11  -6  -7 259.627 17.5849   3
   6   7  11 261.167 18.0895   1
  -6   7 -11 252.516 14.4142   4
 -11  -6   7 238.301 16.1997   2
 -11   6  -7 276.397 16.4892   1
  11   6   7 275.496 15.3376   4
   6  -7 -11 240.826 16.0545   3
  -7  11  -6 239.280 16.3196   1
 -11   6  -7 246.866 13.7685   4
  -7 -11   6 264.983 16.8663   2
   7 -11  -6 253.536 17.5913   3
   8   7 -11 12.0053 4.63883   4
  11   8  -7 5.26500 3.47352   4
 -11  -8  -7 7.19236 4.16465   3
   8  -7  11 5.92379 4.12852   1
  -7  11   8 6.66261 4.13745   2
 -11   8   7 3.37470 3.93837   2
  -8   7  11 4.92360 3.62175   2
  -8  -7 -11 7.09954 2.97838   4
  -7 -11  -8 9.37767 4.33942   3
   7 -11   8 5.55991 3.80960   2
   7  11  -8 4.09592 3.40883   4
  -8  -7 -11 16.7293 5.79586   3
  -8   7 -11 9.03306 3.34795   4
  -7  11  -8 8.68993 3.59024   1
  11   8   7 5.86573 3.36182   4
  11   8   7 4.67189 3.29535   1
   8  -7 -11 9.08079 4.18446   3
  -7 -11   8 4.12912 3.23911   2
 -11   8  -7 3.61037 3.26507   1
 -11  -8   7 2.07477 2.98058   2
  11  -8  -7 11.9809 4.69415   3
   8   7  11 6.05435 4.05383   1
   7 -11  -8 7.59168 4.13961   3
  -8  -7  11 8.54739 4.13542   2
   7  11   8 2.91595 3.50518   1
 -10  -7 -11 207.655 16.3827   3
  -7 -11 -10 189.781 16.0009   3
  11  10  -7 214.164 15.2138   4
 -11 -10  -7 217.345 17.4731   3
  11 -10   7 193.039 15.2061   2
   7  11 -10 194.579 14.1863   4
 -11  10   7 196.692 16.8824   2
 -10  -7 -11 214.389 14.4775   4
   7 -11  10 236.454 16.9211   2
  -7  11  10 216.321 16.7662   2
 -10   7  11 203.530 17.7511   2
  10  -7  11 209.926 17.3540   1
  10   7 -11 196.610 14.6926   4
  11  10   7 214.661 14.1086   4
  10  -7 -11 224.982 17.1066   3
 -11 -10   7 199.241 15.8623   2
  -7  11 -10 229.875 17.6205   1
  10   7  11 216.420 17.8031   1
  11  10   7 211.255 16.9629   1
 -11  10  -7 189.980 14.9477   1
 -10  -7  11 203.197 16.6377   2
   7 -11 -10 226.460 17.8445   3
   7  11  10 195.897 17.4946   1
 -10   7 -11 201.953 13.8635   4
  -7 -11  10 221.210 17.3491   2
  11 -10  -7 207.708 17.2273   3
 -11  -1  -8 4.96489 2.87248   3
   1   8 -11 9.59146 4.44146   1
   1   8 -11 8.38390 3.67297   4
  -8  11   1 6.34729 3.08570   1
  11  -1   8 5.22525 3.08285   1
  11   1  -8 9.34760 4.15890   3
  11   1  -8 15.1158 4.59170   4
 -11   1   8 4.36064 3.77394   2
   8 -11   1 8.88830 4.21067   2
   8 -11   1 4.57762 3.35055   3
   8  11  -1 3.25075 2.40516   4
  -8  11   1 6.20289 3.26338   2
  -1  -8 -11 6.48590 3.20681   3
  -1   8  11 10.3285 4.54431   1
   8  11  -1 6.55030 3.58042   1
   1  -8  11 6.54949 3.81327   1
   1  -8  11 8.30438 3.87794   2
  11  -1   8 8.24814 3.27302   4
  -8 -11  -1 8.36583 3.91342   3
   8  11   1 2.00072 2.93075   1
   1  -8 -11 8.81820 3.81645   3
  11   1   8 10.6898 4.64819   1
   8  11   1 0.72285 1.73073   4
  -1  -8  11 5.92710 3.21151   2
  -1  -8  11 15.8592 5.14076   1
 -11   1  -8 6.81781 3.18417   4
   1   8  11 8.48326 4.15300   1
  -1   8 -11 12.5101 4.22255   4
  -1   8 -11 4.60762 3.29756   1
 -11  -1   8 -0.6008 2.25962   2
  11  -1  -8 4.18723 2.80933   4
  11  -1  -8 7.00216 3.54270   3
  -8 -11   1 9.91939 4.23524   3
   8 -11  -1 2.96868 2.82244   2
  -8  11  -1 7.79458 4.12069   2
 -11   1  -8 2.54482 2.56394   3
   8 -11  -1 3.35838 2.96124   3
  -8  11  -1 3.85716 2.82096   1
  11   1   8 3.72919 2.85090   4
  11   3  -8 6.15787 3.42370   4
  11  -3   8 4.10916 2.49749   4
   3   8 -11 7.19166 3.59035   4
  -3   8  11 2.72858 2.71813   1
   3  -8  11 3.98972 3.01449   2
  -3  -8 -11 1.52319 2.72422   3
   8 -11   3 0.01616 2.18321   2
   3   8 -11 0.10570 1.97351   1
  -8 -11  -3 4.11684 2.96652   3
   3  -8  11 2.00180 2.24028   1
 -11  -3  -8 2.46187 2.66916   3
   8  11  -3 5.81850 3.18115   4
  -8  11   3 1.77357 2.57070   2
  11  -3   8 3.89659 3.22563   1
 -11   3   8 13.2317 5.10885   2
  -3   8 -11 4.26134 2.39476   4
  11   3   8 0.14621 2.25206   1
  11  -3  -8 3.19675 3.03846   3
  11  -3  -8 3.18604 2.27058   4
 -11  -3   8 6.37448 4.18123   2
   3   8  11 6.65614 3.94601   1
   3  -8 -11 2.78794 3.05363   3
  -8 -11   3 0.72832 1.93740   2
   8 -11  -3 1.87097 2.46136   3
  11   3   8 5.89514 2.85169   4
 -11   3  -8 2.83353 2.79588   4
  -3  -8  11 4.05685 3.32614   2
  -8  11  -3 1.37419 2.28545   1
  -3   8 -11 3.09781 3.10404   1
   8  11   3 27.1775 7.30013   1
  11   5  -8 16.3746 4.98714   4
 -11  -5  -8 20.8021 6.48262   3
   5  -8  11 18.0173 5.19485   2
  11  -5   8 18.1568 5.43179   1
  -8  11   5 17.7709 5.56905   2
   5   8 -11 21.6774 5.71430   4
  -5   8  11 21.9167 6.12065   2
  -5  -8 -11 8.52803 4.13214   3
 -11   5   8 10.7092 4.98976   2
   8 -11   5 11.1336 4.55031   2
   5  -8  11 19.8268 6.20531   1
  -8 -11  -5 18.8639 6.05266   3
   8  11  -5 14.3007 4.49402   4
   8  11   5 21.7325 6.26155   1
  11  -5  -8 21.9957 6.19141   3
  -5   8 -11 19.4033 5.00694   4
   8 -11  -5 26.9411 6.88182   3
  -5  -8  11 14.0545 5.02541   2
   5   8  11 16.7727 5.96904   1
  11   5   8 18.7361 5.69362   1
  11   5   8 18.6382 5.31518   4
   5  -8 -11 23.1196 6.19369   3
  -8 -11   5 17.7693 5.17180   2
  -8  11  -5 20.3666 5.80913   1
  -5   8 -11 14.7428 5.03557   1
 -11   5  -8 12.4404 4.27915   4
 -11  -5   8 18.1539 5.83746   2
   8 -11   7 -0.0888 2.80196   2
  11  -7   8 4.79571 3.32819   1
  -7  -8 -11 4.24782 2.91470   3
   7   8 -11 4.32837 2.60195   4
 -11  -7  -8 10.5341 4.86626   3
  11   7  -8 5.34553 3.30665   4
   8  11  -7 4.87866 2.97688   4
  -8 -11  -7 5.14370 3.85593   3
  -7   8  11 2.69395 3.39784   2
   7  -8  11 8.42314 4.63774   1
  -8  11   7 3.82852 3.08122   2
 -11   7   8 7.13253 4.30961   2
  -7  -8 -11 3.47851 2.11704   4
  -8  11  -7 3.51480 2.33899   1
 -11  -7   8 6.55850 4.13020   2
  -7  -8  11 8.04340 3.99737   2
  11  -7  -8 4.92217 3.48924   3
   7   8  11 7.90992 4.80170   1
  -8 -11   7 3.46865 2.67698   2
   8  11   7 3.69593 3.44945   1
   7  -8 -11 5.30030 3.28604   3
   8 -11  -7 1.14394 3.07231   3
 -11   7  -8 11.8304 4.93052   1
 -11   7  -8 4.03635 2.56677   4
  -7   8 -11 8.61987 3.46896   4
  11   7   8 7.80767 4.04785   4
  -7   8 -11 3.38321 2.62994   1
  11   7   8 5.48790 3.23431   1
  11   9  -8 2.07763 2.85636   4
   9   8 -11 0.16788 2.13218   4
   8 -11   9 13.0276 5.74124   2
   9  -8  11 6.10296 4.13982   1
  -8 -11  -9 0.29399 1.92832   3
 -11  -9  -8 3.71616 3.11511   3
  -8  11   9 0.50350 3.15986   2
  -9  -8 -11 1.88147 2.52311   3
   8  11  -9 3.14933 2.69425   4
 -11   9   8 -3.6828 2.43539   2
  -9   8  11 4.84437 3.79177   2
  -9  -8 -11 7.52542 3.27558   4
  -8  11  -9 10.1763 4.62868   1
 -11  -9   8 1.06101 2.54231   2
  -9   8 -11 -0.3443 1.78630   4
  -9  -8  11 -0.7191 2.59249   2
   8 -11  -9 7.21408 4.13626   3
  -9   8 -11 5.59574 3.03434   1
  11  -9  -8 2.17568 2.38621   3
   9   8  11 1.80745 3.63558   1
 -11   9  -8 5.49017 3.77221   1
  11   9   8 3.38155 3.40842   4
   8  11   9 1.83447 3.59272   1
   9  -8 -11 8.90611 4.00386   3
  11   9   8 2.04358 3.34532   1
  -8 -11   9 3.36468 3.28672   2
 -11   0   9 1.38315 2.89345   2
  -9  11   0 0.46666 2.53151   2
  -9  11   0 9.97784 4.47146   1
   0   9  11 0.93783 2.51082   1
  11   0   9 -0.2429 1.89500   4
   9 -11   0 1.73787 3.09019   2
   9 -11   0 -0.3358 1.85101   3
  11   0  -9 4.05550 2.85754   3
   0  -9  11 1.03101 2.45107   2
   0   9 -11 2.76978 2.38710   4
   9  11   0 1.97117 2.06140   4
   0   9 -11 8.42991 4.03450   1
  11   0   9 -1.0840 2.02371   1
 -11   0  -9 0.31807 1.82349   3
  -9 -11   0 2.85882 2.94400   3
  11   0  -9 -0.3105 1.84952   4
 -11   0  -9 -1.1284 1.79177   4
   0  -9 -11 0.35179 2.36790   3
   2  -9  11 310.684 18.2157   2
  -2  -9 -11 299.993 18.2937   3
   2  -9  11 298.838 18.9345   1
 -11  -2  -9 301.963 16.4609   4
   2   9 -11 307.910 18.0061   1
   2   9 -11 284.163 15.8199   4
  11  -2   9 294.766 18.0240   1
  11   2  -9 309.517 16.9214   4
  -2   9  11 299.479 18.4909   1
  -9 -11  -2 308.375 18.6988   3
   9 -11   2 313.629 19.0120   2
 -11   2   9 322.377 20.5683   2
  -9  11   2 320.541 19.1911   2
   9 -11   2 290.824 17.0905   3
   9  11  -2 295.989 15.3688   4
 -11  -2  -9 339.036 18.5876   3
  -2   9 -11 309.373 19.3241   1
  11   2   9 303.752 18.3167   1
  -9  11  -2 298.860 18.4998   2
  11  -2  -9 318.361 18.6910   3
 -11  -2   9 294.447 18.9045   2
 -11   2  -9 296.278 16.1011   4
  -9  11  -2 330.811 18.0670   1
  -2  -9  11 338.397 19.7249   2
  -2   9 -11 304.867 15.7962   4
  11  -2  -9 302.223 15.6758   4
  11   2   9 306.379 16.6569   4
   2  -9 -11 313.659 18.7147   3
   9  11   2 294.281 17.6174   1
   9  11   2 299.349 14.9561   4
  -9 -11   2 285.031 16.8901   3
   2   9  11 298.370 19.3495   1
   9 -11  -2 303.400 18.5368   3
   9 -11   4 9.01284 4.27133   2
 -11  -4  -9 7.71611 3.50978   4
  -9 -11  -4 10.9799 4.90733   3
  11   4  -9 3.02935 2.98568   4
   4  -9  11 6.15517 4.09518   1
  -9  11   4 0.94153 2.85862   2
  -4  -9 -11 6.17269 3.34721   3
   9  11  -4 4.72089 3.02164   4
   4   9 -11 15.7472 4.69403   4
 -11  -4  -9 4.63303 3.51688   3
  11  -4   9 4.91960 3.01304   1
  -4   9  11 17.6403 5.65603   1
 -11   4   9 2.05104 3.50507   2
   4  -9  11 2.71620 2.68664   2
  11  -4  -9 4.83296 3.06263   3
  11   4   9 6.30038 3.55016   4
   4   9  11 6.11773 3.99435   1
   9  11   4 2.56502 2.72188   1
  -4   9 -11 5.58956 2.90921   4
  -9 -11   4 10.6139 4.21432   2
   4  -9 -11 5.04592 3.50202   3
   9 -11  -4 7.07788 3.78535   3
  -4  -9  11 7.24488 3.83667   2
  -4   9 -11 7.64834 4.53830   1
  -9  11  -4 8.97456 3.78294   1
 -11  -4   9 6.92559 4.12177   2
 -11   4  -9 5.80540 3.01393   4
  11   4   9 18.4114 6.04945   1
   6  -9  11 120.296 11.2538   2
  -6   9  11 134.486 12.7187   2
  -9 -11  -6 110.940 12.3847   3
   6   9 -11 128.360 11.0884   4
  -6  -9 -11 126.929 12.2159   3
 -11  -6  -9 120.718 12.2932   3
  11  -6   9 121.130 12.0343   1
  11   6  -9 117.878 11.2136   4
   6  -9  11 123.712 13.0667   1
   9 -11   6 129.025 12.5070   2
  -9  11   6 120.780 12.4858   2
 -11   6   9 128.939 13.6960   2
   9  11  -6 137.294 11.3301   4
   6   9  11 124.680 13.6306   1
  -9 -11   6 137.075 12.4290   2
  11   6   9 128.309 11.0868   4
  -6  -9  11 130.453 12.7504   2
  -9  11  -6 141.166 12.8205   1
  -6   9 -11 124.673 10.2066   4
   9  11   6 113.659 12.0784   1
  11  -6  -9 154.443 13.7739   3
 -11  -6   9 143.612 13.2272   2
  -6   9 -11 145.618 13.7563   1
  11   6   9 138.421 13.0623   1
   6  -9 -11 121.565 12.2820   3
 -11   6  -9 122.439 10.3283   4
   9 -11  -6 99.4256 14.2702   3
  -8   9  11 1.34103 3.44244   2
  -9 -11  -8 -0.1476 2.36226   3
  -9  11   8 2.19432 3.44179   2
   9  11  -8 -1.6062 2.24655   4
   9 -11   8 3.19246 3.13827   2
  -8  -9 -11 1.30857 2.37061   3
   8  -9  11 0.86949 2.97579   1
   8   9 -11 5.84732 3.18349   4
 -11  -8  -9 4.13228 3.30681   3
  11  -8   9 6.10778 3.97398   1
 -11   8   9 5.76661 4.14694   2
  11   8  -9 5.22492 3.53466   4
   8  -9 -11 0.48063 2.42130   3
  11   8   9 8.26758 4.16266   4
  11  -8  -9 18.5924 6.36948   3
   9 -11  -8 2.38621 3.52123   3
  -8  -9  11 -2.2861 1.93068   2
  11   8   9 2.62193 3.18706   1
  -9  11  -8 9.31899 3.63124   1
  -9 -11   8 4.82613 3.01902   2
 -11  -8   9 -0.3081 2.40511   2
 -11   8  -9 -0.3244 2.17504   1
   8   9  11 1.67924 3.49850   1
  -8   9 -11 1.30508 2.29637   1
   9  11   8 3.94492 3.95543   1
 -10  -9 -11 236.105 18.3931   3
  11  10  -9 221.684 16.2709   4
  -9  11  10 228.454 18.2542   2
  -9 -11 -10 221.944 18.4150   3
 -11 -10  -9 215.348 19.7168   3
  10   9 -11 219.831 16.0502   4
 -11  10   9 223.433 18.6263   2
   9  11 -10 241.048 16.4780   4
 -10   9  11 225.330 18.9464   2
  10  -9  11 234.519 19.2058   1
   9  11  10 221.029 18.9279   1
 -11 -10   9 257.365 19.0513   2
 -11  10  -9 244.441 18.3279   1
  10  -9 -11 239.445 18.6316   3
   9 -11 -10 269.571 20.7337   3
  10   9  11 243.880 19.6469   1
 -10   9 -11 207.732 18.0072   1
 -10  -9  11 232.226 18.9233   2
  -9  11 -10 223.724 18.3074   1
  -9 -11  10 231.390 18.3602   2
  11  10   9 240.997 19.1276   1
  11 -10  -9 224.002 20.6748   3
   1  10 -11 228.582 16.4847   1
  10 -11   1 240.767 16.3075   3
 -10 -11  -1 229.489 16.3402   3
  11  -1  10 231.563 16.4879   1
  11   1 -10 237.115 14.7811   4
  -1  10  11 199.454 15.5884   1
  -1 -10 -11 223.177 16.1515   3
 -11  -1 -10 255.062 15.3961   4
  10  11  -1 236.549 13.7719   4
 -11  -1 -10 222.628 15.1681   3
   1  10 -11 208.915 13.8413   4
 -10  11   1 230.916 16.7209   2
  10 -11   1 237.077 16.8271   2
   1 -10  11 210.928 15.6286   2
 -11   1  10 230.641 17.5465   2
 -11   1 -10 221.004 14.2009   4
 -11  -1  10 256.980 18.2895   2
  11  -1 -10 208.498 13.5568   4
 -10 -11   1 222.476 15.5211   3
 -10  11  -1 251.699 17.3716   2
  10 -11  -1 229.212 16.5270   3
  11   1  10 236.177 15.0914   4
  -1 -10  11 234.872 16.5940   2
  -1  10 -11 199.324 15.6911   1
  -1  10 -11 224.039 13.9911   4
  11   1  10 234.827 16.7082   1
   1 -10 -11 221.600 16.3051   3
  10  11   1 229.051 13.2878   4
  11  -1 -10 220.904 15.4421   3
   1  10  11 253.855 17.9057   1
  10 -11   3 188.041 15.0058   2
 -11  -3 -10 182.242 14.2805   3
 -11  -3 -10 187.723 13.4551   4
 -11   3  10 186.181 16.5036   2
 -10 -11  -3 180.750 15.0778   3
  11  -3  10 196.135 15.2509   1
  11   3 -10 192.977 13.8310   4
   3  10 -11 204.125 13.5675   4
   3 -10  11 193.511 14.8244   2
   3  10 -11 191.943 14.6043   1
 -10  11   3 186.169 15.3054   2
  10  11  -3 197.335 13.1519   4
  -3  10  11 204.467 15.3784   1
  -3 -10 -11 190.267 15.1717   3
  10  11   3 194.779 13.7455   4
  -3 -10  11 197.788 15.7898   2
 -11   3 -10 190.442 13.4470   4
 -11  -3  10 205.172 16.1498   2
  11   3  10 181.671 13.2650   4
   3 -10 -11 183.532 14.9080   3
 -10  11  -3 206.729 15.6558   2
  11   3  10 176.585 14.9433   1
  11  -3 -10 187.791 14.4787   3
  10 -11  -3 188.558 15.5095   3
  -3  10 -11 182.950 15.6849   1
  -3  10 -11 194.748 12.7650   4
   3  10  11 204.774 16.3827   1
 -10  11  -3 193.664 14.2133   1
   5  10 -11 163.285 12.4146   4
  10  11  -5 177.119 13.0048   4
 -10  11   5 169.542 14.9554   2
  -5 -10 -11 170.600 14.6017   3
   5 -10  11 155.233 13.2621   2
  11   5 -10 182.097 13.9666   4
 -10 -11  -5 151.382 14.3805   3
  11  -5  10 142.633 13.4450   1
  10 -11   5 131.522 12.7831   2
 -11  -5 -10 167.994 14.3365   3
 -11  -5 -10 146.003 12.0265   4
 -11   5  10 181.419 16.6484   2
 -11   5 -10 153.649 11.8328   4
 -11  -5  10 170.081 14.8345   2
   5  10  11 168.446 15.7308   1
  10 -11  -5 156.970 14.6219   3
 -10  11  -5 184.401 14.4541   1
  -5  10 -11 141.438 14.2892   1
   5 -10 -11 157.714 14.1621   3
  -5 -10  11 164.582 14.9532   2
  11  -5 -10 164.230 14.2517   3
  11   5  10 175.251 15.1479   1
  11   5  10 167.223 12.8027   4
  10  11   5 151.022 13.6869   1
 -10 -11   5 203.492 14.9358   2
  -7  10  11 206.367 16.4570   2
   7  10 -11 205.473 14.5138   4
  10 -11   7 192.830 15.9030   2
   7 -10  11 198.548 15.6080   2
 -10 -11  -7 204.055 17.1969   3
 -11   7  10 193.066 17.3343   2
  -7 -10 -11 211.331 16.7035   3
 -10  11   7 214.238 17.3761   2
  11  -7  10 223.383 17.3055   1
 -11  -7 -10 180.881 15.6399   3
 -11  -7 -10 216.525 14.8034   4
  10  11  -7 200.414 14.4930   4
  11   7 -10 200.168 14.9311   4
 -11   7 -10 215.465 16.2621   1
 -11  -7  10 204.988 16.5103   2
  11   7  10 213.952 14.6761   4
 -10 -11   7 229.873 17.0147   2
 -10  11  -7 194.967 15.5297   1
  -7 -10  11 234.023 17.9494   2
  11   7  10 226.385 17.7975   1
  11  -7 -10 207.754 16.5824   3
  -7  10 -11 200.811 16.9073   1
 -11   7 -10 211.891 13.8766   4
   7 -10 -11 208.781 16.7671   3
  10  11   7 216.391 17.5498   1
   7  10  11 222.262 18.7077   1
  10 -11  -7 188.894 16.6919   3
 -11   9  10 225.550 18.9471   2
 -11  -9 -10 252.064 16.2324   4
   9  10 -11 250.713 16.9709   4
  11   9 -10 233.328 16.6809   4
 -10 -11  -9 216.675 21.0333   3
  10  11  -9 239.530 16.5274   4
  -9 -10 -11 214.342 17.5386   3
 -10  11   9 213.655 17.9943   2
 -11  -9 -10 237.525 18.6182   3
  -9  10  11 221.584 18.3095   2
  11   9  10 244.523 15.8829   4
 -11   9 -10 236.625 18.8247   1
   9  10  11 242.253 19.7974   1
  10 -11  -9 206.270 19.9580   3
 -10 -11   9 205.353 17.2240   2
 -10  11  -9 216.891 17.9030   1
 -11  -9  10 236.722 18.4320   2
  10  11   9 235.725 19.3019   1
  -9 -10  11 228.226 18.6430   2
  -9  10 -11 242.769 19.4825   1
  11   9  10 230.025 18.7598   1
   9 -10 -11 225.646 18.3064   3
  11  -9 -10 229.265 18.3631   3
 -11 -11   0 -1.2430 2.37628   3
 -11   0 -11 6.73841 4.00952   4
 -11   0  11 4.01635 3.99611   2
 -11  11   0 -0.4391 2.46561   2
   0 -11 -11 4.34190 3.08679   3
   0 -11  11 -0.7100 2.22096   2
   0  11 -11 -1.1280 3.13039   1
   0  11 -11 -0.6571 2.63310   4
   0  11  11 3.13045 3.20351   1
  11 -11   0 3.33974 3.01385   3
  11   0 -11 1.61047 2.24269   4
  11   0  11 4.54740 3.90522   1
  11  11   0 2.99055 2.70970   4
 -11 -11  -2 222.346 17.0235   3
  11  -2  11 180.383 15.3942   1
 -11  -2 -11 193.895 13.7592   4
  11 -11   2 187.046 26.7287   3
  11  11  -2 197.415 13.6737   4
 -11   2  11 175.420 16.2503   2
   2  11 -11 205.671 15.6918   1
 -11  11   2 202.258 16.1858   2
  -2 -11 -11 185.750 15.3007   3
   2  11 -11 211.544 14.0825   4
  11   2 -11 186.351 13.8391   4
  -2  11  11 179.481 15.0200   1
   2 -11  11 199.052 15.7084   2
   2 -11 -11 201.926 15.9547   3
  -2  11 -11 207.359 17.0391   1
  -2 -11  11 193.210 15.8953   2
   2  11  11 191.812 16.2757   1
  11 -11  -2 198.955 16.4266   3
 -11  -2  11 194.583 16.3334   2
  11  -2 -11 189.077 15.4825   3
  11  -2 -11 195.949 13.2596   4
 -11 -11   2 200.296 15.1269   3
 -11  11  -2 221.165 16.7419   2
  11   2  11 196.452 16.4545   1
 -11   2 -11 215.630 14.3505   4
  11  11   2 195.054 13.0303   4
 -11 -11  -4 0.02469 3.45167   3
 -11  -4 -11 -0.3304 2.63565   3
 -11  -4 -11 -0.1765 2.58600   4
   4  11 -11 4.59814 3.18261   4
  11  -4  11 2.40810 3.63575   1
 -11   4  11 -0.7175 3.26689   2
  11 -11   4 -0.9563 3.07938   2
 -11  11   4 -1.0771 2.45055   2
  -4 -11 -11 0.93741 2.18798   3
  11   4 -11 0.16220 2.34294   4
  11  11  -4 -0.8930 2.55206   4
  -4  11  11 9.19332 4.47714   1
   4 -11  11 -0.6582 2.55163   2
   4 -11 -11 3.02755 3.00561   3
  -4  11 -11 2.72625 4.31902   1
   4  11  11 0.31873 2.48588   1
  11 -11  -4 1.07275 3.21691   3
 -11  11  -4 -2.1967 2.12435   2
  11  -4 -11 2.03829 2.63566   3
 -11   4 -11 2.85715 2.20278   4
  -4 -11  11 3.04078 3.50146   2
  11   4  11 6.67248 4.52670   1
 -11  -4  11 6.24391 3.99025   2
 -11 -11  -6 196.859 16.9329   3
  11   6 -11 175.601 14.2083   4
 -11  -6 -11 179.412 15.4584   3
 -11  -6 -11 179.727 13.5782   4
  11  11  -6 192.217 14.3338   4
  11  -6  11 189.903 16.2703   1
 -11   6  11 183.165 17.4504   2
  11 -11   6 170.342 15.1082   2
   6 -11  11 166.102 14.6201   2
 -11  11   6 167.252 15.7114   2
  -6 -11 -11 195.357 16.2389   3
   6  11 -11 184.791 13.9025   4
  -6  11 -11 168.696 15.5967   1
   6 -11 -11 158.435 14.9265   3
 -11  11  -6 186.967 15.3825   2
  -6 -11  11 171.318 15.6035   2
   6  11  11 180.457 16.7075   1
  11 -11  -6 167.209 16.0299   3
 -11  11  -6 186.585 14.7150   1
  11  -6 -11 184.444 15.5467   3
 -11   6 -11 156.720 12.3449   4
 -11 -11   6 167.393 14.3942   2
  11   6  11 196.098 16.9732   1
  11   6  11 168.125 13.4806   4
 -11  -6  11 181.687 16.0257   2
  11  -8  11 2.87533 3.35428   1
 -11  -8 -11 2.25128 3.45275   3
 -11  -8 -11 4.29473 2.97455   4
 -11  11   8 3.92794 4.58187   2
   8  11 -11 0.07069 2.76383   4
 -11   8  11 3.30559 4.58879   2
  11  11  -8 3.96401 3.85584   4
  -8  11  11 -2.1599 3.16544   2
  -8 -11 -11 0.26493 2.95975   3
  -8  11 -11 -2.0694 4.38694   1
 -11  -8  11 4.48899 3.76071   2
   8 -11 -11 4.89523 3.95756   3
 -11   8 -11 6.23173 4.51521   1
   8  11  11 4.26790 3.89794   1
  11  -8 -11 5.37055 4.11288   3
 -11 -11   8 -1.7466 2.71210   2
  11   8  11 -1.2945 3.11395   1
 -11  11  -8 6.10436 3.06667   1
  11  11   8 1.79643 3.69067   1
 -12   0   0 1692.62 40.6412   2
 -12   0   0 1676.57 44.0737   3
   0 -12   0 1684.83 41.7946   2
   0 -12   0 1643.54 40.4301   3
   0   0 -12 1672.73 39.1063   4
   0   0  12 1615.49 42.9973   1
   0   0  12 1674.80 38.9277   2
   0  12   0 1645.24 43.6981   1
  12   0   0 1656.22 38.3193   4
   2   0 -12 1534.86 37.2270   4
   2   0  12 1524.62 42.6643   1
  12  -2   0 1575.17 43.2217   3
  12  -2   0 1575.13 36.4427   4
  12   2   0 1616.84 38.2736   4
 -12   2   0 1559.68 42.3107   3
  -2   0 -12 1509.69 37.2233   4
  -2   0  12 1533.45 39.9575   1
  -2   0  12 1588.38 39.5892   2
   0 -12  -2 1573.16 39.2757   2
   0 -12  -2 1542.93 40.4326   3
   0 -12   2 1590.74 41.2825   2
   0  12  -2 1547.22 42.4084   1
   0  12   2 1561.90 42.4851   1
 -12  -2   0 1547.40 42.2537   3
 -12   2   0 1500.39 39.0088   2
  12  -4   0 52.4320 7.06716   4
  12   4   0 43.1794 7.20778   4
   0  12   4 73.3592 10.6448   1
   4   0 -12 41.4532 6.80292   4
   0  12  -4 48.6279 8.46554   1
 -12  -4   0 59.0530 9.41647   3
 -12   4   0 51.1812 8.53344   2
  -4   0 -12 50.3325 7.43792   4
  -4   0  12 50.0468 8.43297   2
   0 -12  -4 40.3346 6.83668   2
   0 -12  -4 37.1938 7.19007   3
   0 -12   4 56.8359 8.97908   2
  12  -4   0 52.3466 9.41277   3
   6   0  12 1188.76 39.0566   1
 -12   6   0 1233.98 36.9444   2
  -6   0 -12 1177.38 33.1869   4
  -6   0  12 1148.48 36.7719   2
  12  -6   0 1171.62 37.9056   3
   6   0 -12 1187.24 33.4065   4
   0  12  -6 1160.60 37.4283   1
   0  12   6 1150.39 37.5850   1
   0 -12  -6 1169.82 37.2307   3
  12   6   0 1223.73 33.9405   4
   0 -12   6 1160.52 37.0441   2
 -12  -6   0 1166.90 37.1603   3
   0 -12  -8 1405.84 43.3687   3
 -12   8   0 1435.68 42.9205   2
   8   0  12 1375.59 43.8396   1
   0 -12   8 1426.91 42.9039   2
  12  -8   0 1387.95 43.3824   3
  12   8   0 1456.01 38.8144   4
  -8   0  12 1410.59 43.7635   2
  -8   0 -12 1379.17 38.1523   4
 -12  -8   0 1403.23 42.5775   3
   0  12   8 1390.02 43.5458   1
   8   0 -12 1405.49 38.0165   4
   0  12  -8 1344.99 42.6419   1
   0  12 -10 859.773 34.7970   1
  12 -10   0 902.572 34.9870   3
 -10   0 -12 869.383 30.5750   4
 -10   0  12 846.387 35.0924   2
   0 -12 -10 906.414 35.4328   3
   0 -12  10 815.308 33.4265   2
  12  10   0 909.780 30.2630   4
  10   0  12 859.481 35.2447   1
   0  12  10 852.546 34.7541   1
  10   0 -12 898.904 30.6231   4
 -12  10   0 924.375 35.1097   2
 -12 -10   0 909.640 34.6193   3
  -1   1  12 0.09010 1.65833   1
 -12  -1  -1 3.06501 2.80903   3
  -1 -12  -1 -0.7046 1.79795   2
   1  12  -1 -0.7961 1.54192   1
 -12   1   1 1.04986 2.05104   2
  -1  12   1 1.21809 2.00349   1
   1  -1  12 4.30885 2.80266   1
  12  -1   1 4.08947 2.44956   4
  12   1  -1 6.94479 3.23517   4
   1 -12   1 1.52537 1.81096   2
 -12   1   1 0.81389 2.01594   3
   1  -1  12 2.64660 2.27574   2
   1   1 -12 2.68024 2.11036   4
  -1   1  12 0.10720 1.45999   2
  -1 -12  -1 1.58122 2.00062   3
  -1  -1 -12 0.98101 1.52537   4
   1 -12   1 0.72993 1.09437   3
 -12  -1   1 1.22910 2.16519   2
 -12  -1   1 7.39362 3.99430   3
 -12   1  -1 -0.4619 1.79708   2
 -12   1  -1 -0.0531 1.69801   3
   1  12   1 0.25416 1.88090   1
  12  -1  -1 -0.2735 2.00217   3
  12  -1  -1 -0.0490 1.56693   4
   1   1  12 3.16319 2.40895   1
  -1   1 -12 0.48627 1.58822   4
   1 -12  -1 -0.5169 1.37052   2
  -1  -1  12 0.71249 2.14216   1
  -1  -1  12 1.92671 2.20245   2
  12   1   1 -0.7149 1.39777   4
   1 -12  -1 2.60100 1.85142   3
   1  -1 -12 10.2245 3.35292   4
  -1 -12   1 0.96551 1.91105   2
  -1 -12   1 0.27954 1.11177   3
  -1  12  -1 7.86001 3.55122   1
   1  12  -3 15.2141 4.99017   1
  -1 -12  -3 28.1692 5.77621   2
 -12  -3  -1 20.1394 5.36021   3
  -1  12   3 43.1859 8.25879   1
  -3  -1 -12 24.0457 5.16680   4
  -3   1  12 29.9650 6.26458   2
   1 -12   3 26.0197 6.31153   2
  12  -3   1 24.7561 6.63332   3
  12  -3   1 18.2835 4.44725   4
  12   3  -1 21.8688 4.88267   4
  -3   1  12 25.2697 5.71561   1
  -1 -12  -3 24.3485 6.16883   3
   3   1 -12 22.7328 5.07767   4
   3  -1  12 20.6190 5.88841   1
 -12   3   1 25.7630 5.94882   2
   3  -1 -12 20.6069 4.77386   4
  -1 -12   3 25.8806 5.89188   2
  12  -3  -1 17.6983 4.32411   4
  -3  -1  12 20.6909 5.47200   2
  -1  12  -3 22.0305 5.94961   1
 -12  -3   1 29.4481 6.61198   2
 -12  -3   1 20.2033 5.42131   3
 -12   3  -1 24.7436 5.57335   2
 -12   3  -1 17.3490 5.29383   3
   1 -12  -3 21.3306 5.21444   2
   1  12   3 17.8759 5.41208   1
  12   3   1 22.5945 5.07881   4
   3   1  12 22.5244 5.95315   1
  -3  -1  12 23.3285 5.56405   1
  12  -3  -1 21.0160 5.79369   3
  -3   1 -12 17.3267 4.58361   4
   1 -12  -3 24.2175 6.16915   3
  12  -5   1 0.63232 1.37319   4
 -12   5   1 2.81314 2.71206   2
  12  -5   1 10.6201 4.36043   3
   1  12  -5 -0.9736 1.29295   1
  -1  12   5 2.08475 2.47815   2
   5  -1  12 2.67263 2.44565   1
  -1 -12  -5 0.25274 1.84136   3
 -12  -5  -1 0.55450 1.88401   3
   5   1 -12 0.70278 1.91971   4
  -1  12   5 1.15219 2.49572   1
  -5   1  12 -0.3427 2.13128   2
  -5  -1 -12 2.93319 1.88031   4
   1 -12   5 -1.7207 1.41193   2
  12   5  -1 5.97009 3.36198   4
   1 -12  -5 1.98811 2.39108   2
  -5  -1  12 5.64962 3.33494   2
   1  12   5 3.41217 3.23182   1
   5  -1 -12 2.12257 2.07661   4
  12   5   1 6.12438 3.32012   4
  -1  12  -5 0.48138 2.07983   1
  -5   1 -12 3.44493 2.50068   4
   5   1  12 0.08052 1.81973   1
 -12  -5   1 -0.2198 1.91978   3
   1 -12  -5 2.54249 2.01307   3
 -12   5  -1 0.44445 2.00251   2
  12  -5  -1 2.99506 3.13364   3
  -1 -12   5 4.37927 2.81211   2
  -1  12   7 3.35652 2.60860   1
  -7  -1 -12 2.31140 1.99551   4
  -1 -12  -7 0.22957 2.15772   3
  12   7  -1 2.67480 2.57021   4
   1  12  -7 -0.9791 1.67527   1
   1 -12   7 -0.3150 1.83303   2
 -12  -7  -1 2.18880 2.67697   3
  12  -7   1 12.4615 4.91147   3
   7   1 -12 2.63670 2.40963   4
 -12   7   1 6.03741 3.67496   2
  -7   1  12 4.68926 3.35488   2
   7  -1  12 0.96925 2.65620   1
  12   7   1 1.03164 2.37934   4
 -12  -7   1 4.35590 2.97594   3
  -7   1 -12 3.15126 2.29332   4
  -1  12  -7 3.39724 2.60221   1
   7   1  12 0.77297 2.45812   1
   7  -1 -12 3.89562 2.63638   4
   1 -12  -7 3.56836 2.99415   3
 -12   7  -1 3.67610 3.30912   2
  -1 -12   7 6.12966 3.41018   2
  12  -7  -1 4.32613 3.55732   3
  -7  -1  12 1.00530 2.76558   2
   1  12   7 8.50456 4.15307   1
   9   1 -12 7.77212 3.65423   4
   9  -1  12 1.46118 2.53308   1
 -12   9   1 7.88409 4.54191   2
  -9  -1 -12 2.76245 2.23305   4
  -1 -12  -9 3.44866 2.79381   3
   1  12  -9 4.37669 2.94601   1
   1 -12   9 8.12445 3.90060   2
 -12  -9  -1 5.81339 4.21564   3
  -1  12   9 1.43977 2.81278   1
  -9   1  12 12.6770 5.66060   2
  12   9  -1 2.66566 2.86968   4
  12  -9   1 3.34921 3.02668   3
  12  -9  -1 3.64294 2.90979   3
  -1 -12   9 0.05757 2.54696   2
   1  12   9 1.03237 2.00959   1
  -1  12  -9 -0.1813 2.40049   1
  -9   1 -12 5.38333 2.87997   4
  -9  -1  12 2.32344 3.45222   2
   9   1  12 11.3722 5.18858   1
 -12   9  -1 2.13984 2.84923   2
   9  -1 -12 1.86149 2.12446   4
 -12  -9   1 3.20621 2.65452   3
  12   9   1 3.47419 2.28105   4
   1 -12  -9 4.26518 3.04547   3
  -1  12  11 29.7634 7.83317   1
 -12 -11  -1 20.1909 7.05994   3
 -12  11   1 19.3278 6.86374   2
  12 -11   1 19.9166 6.51983   3
   1  12 -11 15.5980 6.27907   1
   1 -12  11 15.9928 5.99338   2
  -1 -12 -11 15.2610 5.56155   3
  11  -1  12 33.1323 8.63730   1
 -11  -1 -12 19.2665 5.60501   4
  12  11  -1 15.1451 5.21006   4
  11   1 -12 25.8736 6.59885   4
 -11   1  12 11.8534 6.36462   2
  12 -11  -1 14.5679 6.30685   3
  -1  12 -11 22.5344 7.42339   1
 -12  11  -1 17.3908 6.04778   2
   1  12  11 23.0377 7.04429   1
   1 -12 -11 22.8247 6.71254   3
 -11  -1  12 25.7125 8.13590   2
 -11   1 -12 16.6641 4.95050   4
  11  -1 -12 20.0494 5.42155   4
 -12 -11   1 16.0601 5.77235   3
  -1 -12  11 22.0432 7.35252   2
  12  11   1 21.6884 5.62733   4
  11   1  12 13.6871 6.42251   1
   0  -2 -12 1522.00 36.3574   4
  -2  12   0 1514.34 41.5581   1
   0  -2  12 1571.38 38.5062   2
   0   2 -12 1542.94 37.7312   4
   0   2  12 1510.28 41.6728   1
 -12   0   2 1546.59 40.8673   2
  -2 -12   0 1528.24 38.9605   2
   2  12   0 1531.61 42.2843   1
  12   0  -2 1563.62 43.0385   3
  12   0  -2 1585.56 37.0902   4
  12   0   2 1560.90 37.2268   4
  -2 -12   0 1557.47 38.9843   3
 -12   0   2 1577.92 42.4542   3
   2 -12   0 1590.08 39.7350   3
   2 -12   0 1523.85 40.5271   2
 -12   0  -2 1571.73 42.2892   3
   0  -2  12 1499.11 40.7114   1
   2  12  -2 2118.40 51.1745   1
 -12  -2  -2 2126.10 51.6843   3
  -2   2  12 2116.81 47.2859   2
  12   2  -2 2116.08 46.2671   4
   2   2 -12 2118.69 46.7457   4
  -2  12   2 2099.10 51.0853   1
 -12   2   2 2068.92 49.5698   2
  -2  -2 -12 2133.90 45.8350   4
   2 -12   2 2141.39 50.6834   2
  12  -2   2 2132.15 45.2636   4
  -2   2  12 2105.71 49.4026   1
  -2 -12  -2 2069.27 49.2198   3
   2  -2  12 2115.75 51.9903   1
  -2 -12  -2 2184.55 47.0974   2
  -2  -2  12 2119.85 49.0774   2
 -12  -2   2 2091.63 48.4291   2
  12  -2  -2 2122.86 52.6775   3
 -12  -2   2 2048.67 50.8364   3
   2 -12  -2 2075.62 49.8570   3
   2  12   2 2174.22 52.2956   1
   2 -12  -2 2075.40 48.8971   2
 -12   2  -2 2138.92 51.3052   3
   2  -2 -12 2097.76 44.8293   4
   2   2  12 2096.40 52.4469   1
  12   2   2 2129.97 46.3516   4
  -2  -2  12 2132.49 49.0012   1
  -2 -12   2 2160.84 49.5086   2
  12  -2  -2 2127.90 44.5301   4
  -2  12  -2 2066.11 51.3567   1
 -12   2  -2 2102.15 51.1519   2
  -2   2 -12 2080.11 46.3886   4
  12  -4   2 13.9184 3.65765   4
  -2  12   4 4.28275 2.78479   1
 -12  -4  -2 3.05500 2.93980   3
   4   2 -12 1.50261 2.15141   4
  -4   2  12 3.37661 2.92673   2
  12  -4   2 -0.6966 2.05645   3
   4  -2  12 4.46116 3.14578   1
  12   4  -2 -0.1106 1.85562   4
  -2  12   4 0.86166 1.78229   2
 -12   4   2 2.20769 2.53909   2
  -2 -12  -4 4.91007 3.13524   3
   2 -12   4 6.37183 3.16989   2
  -4  -2 -12 1.33013 1.88833   4
   2  12  -4 17.2755 5.19352   1
   4   2  12 0.70553 1.87185   1
 -12   4  -2 3.43067 2.90175   2
  -4  -2  12 7.05420 3.41275   2
  -2 -12   4 2.82942 2.14400   2
  -2  12  -4 -0.8041 1.49599   1
   4  -2 -12 1.32639 2.13941   4
  12   4   2 3.12611 2.25599   4
 -12   4  -2 0.30440 1.95565   3
  -4   2 -12 4.39713 2.32469   4
  12  -4  -2 1.80259 2.47238   3
   2  12   4 6.84497 3.87718   1
   2 -12  -4 1.06678 2.21791   2
   2 -12  -4 2.72226 2.67917   3
 -12  -4   2 14.9854 4.54432   2
 -12  -4   2 3.84095 2.84986   3
  12  -4  -2 0.61112 1.59064   4
  -6  -2 -12 1373.43 36.4987   4
  12   6  -2 1431.72 37.8688   4
  12  -6   2 1374.38 40.7738   3
  -6   2  12 1380.64 41.2086   2
  -2  12   6 1421.56 41.3526   1
 -12   6   2 1342.82 40.6587   2
  -2  12   6 1369.04 37.4869   2
   6  -2  12 1339.47 41.9676   1
   6   2 -12 1377.41 37.4307   4
  -2 -12  -6 1405.67 41.8462   3
   2  12  -6 1336.08 40.3297   1
   2 -12   6 1394.45 41.0534   2
 -12  -6  -2 1358.96 41.1807   3
  -2  12  -6 1381.49 41.8345   1
   6  -2 -12 1463.27 36.6004   4
   2 -12  -6 1416.80 42.1415   3
  -6  -2  12 1391.41 41.2543   2
  12   6   2 1441.07 37.3577   4
   6   2  12 1429.96 43.6958   1
  -2 -12   6 1366.99 40.9027   2
   2  12   6 1344.05 41.7322   1
  -6   2 -12 1371.51 37.0775   4
 -12  -6   2 1378.65 40.4024   3
  12  -6  -2 1407.56 42.9052   3
 -12   6  -2 1417.54 39.5223   2
   2  12  -8 1070.87 36.6275   1
  -8  -2 -12 1029.40 32.2269   4
  12  -8   2 1095.04 36.7867   3
  -8   2  12 1054.97 37.5947   2
  -2 -12  -8 1027.67 36.7914   3
 -12   8   2 1080.06 37.3004   2
   2 -12   8 1105.65 37.2701   2
 -12  -8  -2 1070.17 37.1873   3
   8   2 -12 1061.42 33.1272   4
   8  -2  12 1135.31 39.2488   1
  -2  12   8 1018.71 36.0047   1
  12   8  -2 1132.19 33.5897   4
   8  -2 -12 1082.63 31.8370   4
  12   8   2 1098.54 32.6696   4
 -12  -8   2 1055.51 35.6311   3
  -8  -2  12 1071.70 37.4746   2
   2  12   8 1029.44 37.5835   1
 -12   8  -2 1070.95 35.7953   2
  -2 -12   8 1096.68 37.3947   2
   8   2  12 1086.21 38.8264   1
  -2  12  -8 1074.11 37.8296   1
   2 -12  -8 1104.87 38.0643   3
  -8   2 -12 1086.96 33.1558   4
  12  -8  -2 1120.47 38.4370   3
 -10  -2 -12 1106.86 35.1576   4
 -12 -10  -2 1174.82 40.7736   3
   2  12 -10 1193.12 40.2014   1
  12  10  -2 1205.48 35.9684   4
  10  -2  12 1119.50 40.7674   1
  -2  12  10 1160.73 40.3951   1
  -2 -12 -10 1171.67 40.8704   3
  12 -10   2 1186.85 39.5022   3
   2 -12  10 1140.96 40.0887   2
 -12  10   2 1148.42 40.5264   2
  10   2 -12 1166.31 36.6209   4
 -10   2  12 1151.93 41.9165   2
   2 -12 -10 1157.28 40.7580   3
  12 -10  -2 1098.98 40.0985   3
  10   2  12 1174.43 42.2266   1
  -2 -12  10 1153.01 40.7269   2
   2  12  10 1154.66 41.9683   1
  -2  12 -10 1180.01 42.3628   1
 -10  -2  12 1168.26 41.4008   2
  10  -2 -12 1199.92 34.9683   4
 -12  10  -2 1144.82 39.5303   2
 -10   2 -12 1159.43 36.0451   4
  12  10   2 1125.57 34.2969   4
 -12 -10   2 1108.83 38.0981   3
  12   1  -3 30.9596 7.11902   3
  -3  12   1 24.4824 6.32056   1
  -3 -12  -1 20.1777 5.41192   3
  12  -1   3 17.3696 4.45668   4
  -1  -3 -12 22.2791 4.80809   4
 -12   1   3 21.0827 5.86161   2
  -3 -12  -1 20.0644 4.65545   2
   1  -3  12 18.7120 4.70874   2
  12   1  -3 19.6384 4.73194   4
   1  -3  12 22.3444 6.08520   1
 -12  -1  -3 15.5177 4.84133   3
   1   3 -12 22.8855 5.06248   4
   3  12  -1 15.3659 4.94119   1
   3 -12   1 20.7326 5.56345   2
  -1   3  12 22.2556 5.52614   1
  -1  -3  12 19.1410 4.99004   2
 -12  -1   3 21.1259 5.68619   2
  12  -1  -3 25.8048 5.30660   4
  -3 -12   1 23.3516 5.49354   2
  -3 -12   1 20.4422 4.97929   3
 -12   1  -3 21.2526 5.73135   3
   1   3  12 24.8427 6.29447   1
  -3  12  -1 23.4144 5.96807   1
 -12  -1   3 19.6976 5.60396   3
  -1  -3  12 19.0148 5.31505   1
  12   1   3 24.6813 5.19440   4
   3 -12  -1 35.3841 7.00891   2
  12  -1  -3 27.4046 6.43897   3
   1  -3 -12 21.4768 4.58345   4
   3 -12  -1 20.0926 5.39855   3
   3  12   1 23.7070 6.14700   1
  -1   3 -12 30.4633 6.01192   4
   3 -12   3 0.42806 1.62788   2
 -12  -3  -3 1.03870 1.89648   3
   3  -3  12 0.66438 2.17352   1
   3   3 -12 1.11804 2.20933   4
 -12   3   3 4.41927 3.16173   2
  12   3  -3 3.41595 2.73180   4
  -3  12   3 1.20921 2.17010   1
  -3 -12  -3 6.71471 3.63635   3
  12  -3   3 2.07157 2.02749   4
   3  12  -3 3.22255 2.75307   1
  -3   3  12 4.39498 3.00041   2
  -3   3  12 0.98281 1.99406   1
  -3  -3 -12 0.21227 1.42059   4
   3  12   3 1.75826 2.76115   1
   3 -12  -3 4.65132 3.08919   3
  12   3   3 -0.4044 1.78023   4
   3 -12  -3 2.03528 2.45567   2
  12  -3  -3 1.49212 2.74798   3
  -3   3 -12 3.85179 2.34870   4
   3  -3 -12 4.51048 2.68593   4
 -12   3  -3 -0.1564 1.97399   3
  -3  -3  12 1.29520 2.13156   2
 -12  -3   3 5.06988 3.07081   2
   3   3  12 1.30558 2.19500   1
  -3  12  -3 7.52647 3.53543   1
  12  -3  -3 1.76348 1.77053   4
  -3 -12   3 2.25732 2.20853   2
  -3  -3  12 4.28169 2.52248   1
 -12  -3   3 1.99704 2.38007   3
  -3 -12  -5 21.3240 6.16164   3
 -12  -5  -3 16.7198 5.23889   3
  12  -5   3 13.6199 3.89360   4
   5   3 -12 18.0626 4.79193   4
  -3  12   5 50.4195 8.96764   1
  -3  12   5 13.9173 4.65309   2
  -5   3  12 16.1754 5.21793   2
   3 -12   5 12.7717 4.66568   2
 -12   5   3 20.3785 6.01005   2
   5  -3  12 19.5141 6.22620   1
  12   5  -3 12.1539 4.38039   4
   3  12  -5 18.3539 5.29107   1
  12  -5   3 23.6156 6.49488   3
  -5  -3 -12 22.2828 5.28405   4
  -5   3 -12 21.9291 5.42832   4
 -12  -5   3 29.9772 6.32550   2
   5  -3 -12 13.5259 4.03097   4
 -12   5  -3 21.4058 5.24350   2
   3 -12  -5 14.1390 4.70434   3
 -12  -5   3 13.4647 4.66288   3
  -5  -3  12 19.2590 5.56538   2
  -3  12  -5 18.1971 5.66187   1
  -3 -12   5 13.9398 4.79514   2
 -12   5  -3 40.0971 8.03289   3
  12  -5  -3 14.0262 5.21737   3
   5   3  12 19.2034 6.23295   1
   3  12   5 19.7624 6.24426   1
  12   5   3 11.2823 3.71208   4
  -7   3  12 14.6585 4.94701   2
  12   7  -3 27.2926 6.37146   4
  -7  -3 -12 27.4143 6.07040   4
 -12   7   3 26.8429 7.15819   2
   7   3 -12 24.3669 5.86872   4
   3 -12   7 28.1591 6.82384   2
  -3 -12  -7 28.7656 7.41503   3
  12  -7   3 24.7412 6.43588   3
   7  -3  12 28.2834 7.38684   1
  -3  12   7 21.4710 6.43039   1
  -3  12   7 32.1416 6.84289   2
   3  12  -7 21.4113 5.79831   1
 -12  -7  -3 33.9280 8.11449   3
   7  -3 -12 30.4425 5.86324   4
 -12  -7   3 23.1851 6.24059   3
   3 -12  -7 24.9437 6.88733   3
   7   3  12 37.8501 8.64691   1
  -7  -3  12 28.0916 7.01800   2
  -3 -12   7 28.5202 6.88896   2
  -7   3 -12 30.2471 6.41798   4
  12  -7  -3 21.8687 6.47140   3
  -3  12  -7 23.3109 6.50274   1
 -12   7  -3 32.1741 6.68396   2
  12   7   3 27.8642 5.94434   4
   3  12   7 28.8449 7.32476   1
   3  12  -9 6.20484 3.38012   1
   3 -12   9 3.51763 3.46546   2
  12   9  -3 4.53190 3.27953   4
  -9   3  12 9.74945 5.24773   2
   9   3 -12 6.78777 3.74254   4
  -3 -12  -9 4.26982 3.16686   3
 -12  -9  -3 4.10722 3.87009   3
 -12   9   3 5.91083 3.95610   2
  -3  12   9 8.60678 4.12557   1
   9  -3  12 7.33894 4.37532   1
  12  -9   3 8.77731 4.34519   3
  -9  -3 -12 6.58154 3.24857   4
 -12  -9   3 0.39397 2.76684   3
  -3  12  -9 2.88503 4.15849   1
   9   3  12 4.73182 3.82054   1
  -9  -3  12 1.50967 3.56044   2
   3  12   9 4.49600 3.49808   1
  -3 -12   9 4.79084 3.62777   2
  12   9   3 3.36800 2.82163   4
   3 -12  -9 4.72840 3.39411   3
 -12   9  -3 7.55673 3.69492   2
  12  -9  -3 8.36630 4.47765   3
  -9   3 -12 5.94933 3.39010   4
 -11   3  12 3.81440 4.83374   2
 -12  11   3 9.03957 4.61676   2
   3  12 -11 4.25255 3.69921   1
 -12 -11  -3 0.10288 3.43466   3
  11  -3  12 -2.2725 2.81544   1
   3 -12  11 4.95758 4.38043   2
 -11  -3 -12 1.79336 3.17891   4
  -3 -12 -11 -3.0727 2.19208   3
   3  12 -11 -0.3071 2.29530   4
  -3  12  11 5.27311 3.61696   1
  12  11  -3 0.57586 2.93818   4
  11   3 -12 13.2195 5.20060   4
  12 -11  -3 1.64895 3.23590   3
  12  11   3 -0.3596 2.52969   4
  11   3  12 1.95037 3.90466   1
  -3 -12  11 -0.7422 2.97463   2
   3 -12 -11 -0.0270 2.45738   3
 -12  11  -3 0.16686 3.11506   2
   3  12  11 8.70319 4.97004   1
  -3  12 -11 4.26229 4.42180   1
 -11   3 -12 1.52509 2.36087   4
 -11  -3  12 -5.0831 2.17000   2
   0  -4 -12 48.9874 7.63096   3
  12   0   4 51.2208 7.61292   4
 -12   0   4 52.4453 9.08329   3
   0  -4  12 52.8618 8.70823   1
   0  -4 -12 52.6556 7.22310   4
  -4 -12   0 47.2399 7.61563   2
  -4 -12   0 50.4944 8.14225   3
  -4  12   0 43.1343 7.68142   1
   4 -12   0 43.6687 7.47656   3
  12   0  -4 48.0876 8.84555   3
 -12   0  -4 42.4184 7.86938   3
   4  12   0 43.2482 8.40734   1
 -12   0   4 44.6541 8.31401   2
   0   4 -12 48.1877 7.33048   4
   0   4  12 57.4722 9.51461   1
  12   0  -4 44.6504 7.29740   4
   0  -4  12 52.6079 8.30589   2
   4 -12   0 56.2941 9.18440   2
   2  -4  12 18.5272 5.52057   1
  -2  -4 -12 10.6701 3.47188   4
 -12   2   4 5.13272 2.82019   2
  12   2  -4 0.88921 2.04416   4
   2  -4  12 1.50192 1.79049   2
 -12  -2  -4 -0.1475 1.45828   3
   4  12  -2 0.12567 1.94895   1
   2   4 -12 1.60062 2.29032   4
  -2   4  12 2.73483 2.62599   1
  -2  -4 -12 5.96641 2.61372   3
  -4 -12  -2 2.42936 2.63912   3
  -4  12   2 2.21066 2.07228   1
   4 -12   2 -0.9112 1.84769   2
  12  -2   4 -0.0440 1.52881   4
   2  -4 -12 4.18935 2.50034   3
 -12  -2   4 3.78911 3.31658   2
 -12  -2   4 1.03231 2.16265   3
  -2   4 -12 -0.3211 1.70930   4
   2  -4 -12 2.46923 2.06320   4
  12   2   4 2.45698 2.22323   4
   2   4  12 2.30407 2.84733   1
  12  -2  -4 5.38733 2.71175   4
   4 -12  -2 4.44131 3.17327   2
 -12   2  -4 2.43576 2.22324   3
  -2  -4  12 0.65085 1.97084   1
  -4  12  -2 -0.4988 1.55517   1
   4  12   2 1.61631 2.41421   1
  -4 -12   2 0.14468 1.76858   2
  -2  -4  12 -0.2146 1.58047   2
  12  -2  -4 10.2726 4.48665   3
   4 -12  -2 1.26683 2.04721   3
  -4  12   4 900.490 30.6420   2
  -4  -4 -12 911.367 27.1851   4
  -4  12   4 896.284 30.8680   1
   4 -12   4 900.385 31.6062   2
   4   4 -12 870.284 28.5151   4
 -12  -4  -4 912.027 32.2306   3
   4  12  -4 900.356 31.0270   1
  12  -4   4 880.984 26.9663   4
  12   4  -4 906.300 28.9942   4
  -4   4  12 959.779 31.4615   2
   4  -4  12 902.481 32.9013   1
  -4  -4 -12 877.347 28.2602   3
  -4 -12  -4 887.387 31.2122   3
 -12   4   4 930.916 32.6928   2
  -4  -4  12 905.620 31.2443   2
  12  -4  -4 929.311 33.2434   3
  -4 -12   4 849.248 30.0861   2
   4  -4 -12 883.697 25.8990   4
   4   4  12 900.456 33.3431   1
 -12  -4   4 937.760 31.0720   2
   4  12   4 868.579 31.9951   1
 -12   4  -4 911.339 30.8448   3
  -4  12  -4 903.419 32.0565   1
  -4   4 -12 903.452 28.4081   4
  12   4   4 903.003 28.3904   4
   4  -4 -12 894.104 29.1663   3
   4 -12  -4 917.237 32.0522   3
   4 -12  -4 872.059 30.1921   2
 -12  -4   4 966.222 32.0411   3
   4  12  -6 1.69305 2.20729   1
  -4  12   6 3.26805 2.88467   2
  -6   4  12 2.71342 3.26080   2
  -4  12   6 5.79360 3.72319   1
  -6  -4 -12 9.27694 2.95001   4
   6   4 -12 4.10544 2.56724   4
 -12  -6  -4 4.68171 2.97961   3
  -6  -4 -12 0.09770 1.66352   3
  -4 -12  -6 2.76941 2.46868   3
   4 -12   6 5.74100 3.21268   2
 -12   6   4 3.32184 3.35029   2
  12  -6   4 3.36257 2.96044   3
  12   6  -4 5.51539 3.33335   4
   6  -4  12 3.83127 3.32349   1
 -12  -6   4 2.38350 2.59759   2
  -6   4 -12 1.71422 2.51670   4
  12   6   4 0.31323 2.02342   4
   4  12   6 14.6469 6.07577   1
   6  -4 -12 1.35138 2.34537   3
 -12  -6   4 0.66397 2.29752   3
 -12   6  -4 2.54812 2.21747   2
  -6  -4  12 0.28999 2.17870   2
  -4  12  -6 5.17591 3.29736   1
   4 -12  -6 6.53475 3.89724   3
 -12   6  -4 4.37457 3.03510   3
  -4 -12   6 0.08629 1.60369   2
  12  -6  -4 1.64436 2.69974   3
  12   8  -4 8.69501 4.18120   4
   8   4 -12 2.68319 2.52456   4
  -8   4  12 7.83121 5.12344   2
  -4  12   8 4.05425 3.31717   1
 -12   8   4 2.40304 3.41481   2
  -4 -12  -8 3.43521 3.27390   3
  -8  -4 -12 2.84069 2.49367   4
   4  12  -8 6.63348 3.32242   1
  12  -8   4 4.06666 3.28226   3
  -4  12   8 2.57082 2.75084   2
   8  -4  12 18.9198 6.36045   1
   4 -12   8 3.22479 3.28929   2
  -8  -4 -12 1.96194 2.54432   3
 -12  -8  -4 13.4009 5.30530   3
  -8   4 -12 6.74694 2.89396   4
  -4  12  -8 3.76127 2.75768   1
 -12  -8   4 26.6905 6.67390   3
 -12   8  -4 7.00703 3.95905   2
 -12   8  -4 7.87664 4.10119   3
   4  12   8 5.44314 3.95343   1
   8   4  12 10.3496 4.54510   1
  -4 -12   8 5.87152 4.03048   2
  -8  -4  12 3.15008 3.58363   2
  12  -8  -4 9.48746 4.62418   3
   8  -4 -12 4.44814 3.42833   3
  12   8   4 9.02014 3.75313   4
   4 -12  -8 4.18825 3.52597   3
 -10  -4 -12 3.11563 3.23601   4
 -12 -10  -4 6.30292 4.57529   3
   4 -12  10 2.19245 3.15385   2
 -12  10   4 44.3514 9.97647   2
 -10  -4 -12 22.5871 6.27311   3
  -4  12  10 3.00686 2.57981   1
   4  12 -10 -0.0465 2.27690   4
 -10   4  12 1.07263 4.06791   2
  10  -4  12 2.75034 3.21040   1
  12  10  -4 5.09009 3.60651   4
  -4 -12 -10 1.29744 2.28823   3
  10   4 -12 -1.3154 2.46703   4
   4 -12 -10 18.8465 6.30407   3
 -12  10  -4 34.9972 8.11605   2
  12  10   4 28.7580 6.51995   4
  12 -10  -4 3.49440 3.38694   3
  10  -4 -12 0.16226 2.62519   3
 -10  -4  12 -3.4678 2.45892   2
  10   4  12 8.62031 4.74225   1
  -4  12 -10 2.23958 3.86793   1
 -10   4 -12 3.84002 3.00846   4
   4  12  10 -1.1303 2.87203   1
  -5 -12  -1 3.40683 2.49610   3
  -1  -5 -12 0.24923 1.38801   4
   5  12  -1 1.28908 2.25033   1
  -1   5  12 3.80543 3.07152   1
   1   5 -12 -0.6192 1.61846   4
   5 -12   1 2.89441 2.84654   2
   5 -12   1 3.37888 2.39092   3
  12   1  -5 4.71285 3.31369   3
  -1  -5 -12 -0.2483 1.68016   3
  12  -1   5 3.78542 2.79640   4
 -12   1   5 1.65438 2.40722   2
  12   1  -5 3.73176 2.66116   4
   1  -5  12 -0.7380 1.66211   2
 -12  -1  -5 10.3009 4.06341   3
  -5  12   1 2.10234 2.07722   1
   1  -5  12 0.39190 1.78241   1
 -12  -1   5 7.13655 3.67607   3
  12   1   5 5.71871 3.10471   4
   1  -5 -12 -0.4243 1.73534   3
  -1  -5  12 2.91146 2.58875   1
  -5 -12   1 3.43565 2.83941   3
  -5 -12   1 30.3217 6.19006   2
 -12  -1   5 -0.5339 2.31018   2
  12  -1  -5 8.70204 4.16934   3
   1  -5 -12 1.55076 1.85788   4
   5 -12  -1 2.28576 2.44404   3
  12  -1  -5 1.89521 2.17271   4
  -1  -5  12 4.05399 2.70386   2
   1   5  12 2.84438 2.81727   1
  -1   5 -12 1.74434 2.03255   4
 -12   1  -5 2.47094 2.21013   3
   5 -12  -1 4.72713 3.23925   2
  -5  12  -1 6.82866 3.41470   1
   5  12   1 1.45936 2.67964   1
   5 -12   3 16.3670 5.13094   2
  12   3  -5 21.8989 5.51520   4
  -3   5  12 27.3752 6.41948   1
  -3  -5 -12 22.6341 5.71826   3
   3  -5  12 15.9118 4.63530   2
   5  12  -3 14.2051 4.51405   1
  -5  12   3 16.3103 4.99152   2
 -12  -3  -5 20.7852 5.83631   3
 -12   3   5 19.5975 6.02207   2
  -5 -12  -3 20.0050 5.78041   3
  -3   5  12 10.1652 4.07005   2
   3   5 -12 24.2861 5.85593   4
  -3  -5 -12 16.5413 4.29743   4
  -5  12   3 17.2661 5.31189   1
  12  -3   5 20.4257 5.14279   4
   3  -5  12 14.0261 5.22894   1
  -3   5 -12 26.1053 5.71414   4
   3  -5 -12 13.7762 4.34155   3
  12  -3  -5 19.6821 6.07651   3
  -3  -5  12 15.6461 4.49338   1
   5 -12  -3 16.9318 5.21917   3
   5 -12  -3 17.1076 5.49744   2
  12   3   5 18.7399 5.05222   4
 -12  -3   5 23.2858 6.14767   3
 -12   3  -5 17.6402 5.16666   3
 -12  -3   5 24.0861 6.56156   2
   3   5  12 44.0639 9.17250   1
  -5 -12   3 13.8632 4.43786   2
  -5  12  -3 15.0641 4.90601   1
  12  -3  -5 14.2640 3.99094   4
  -3  -5  12 15.2678 4.83713   2
   5  12   3 8.39260 4.33627   1
   5 -12   5 3.08746 2.69860   2
  -5   5  12 0.44650 2.64346   2
 -12   5   5 0.15366 1.61727   2
  12   5  -5 -0.1302 2.40118   4
  -5  -5 -12 2.79491 2.38500   3
  -5  -5 -12 2.40815 2.02590   4
  -5  12   5 9.07506 3.97078   1
   5  12  -5 -1.1098 1.76001   1
  12  -5   5 1.74271 2.02184   4
  -5 -12  -5 0.52212 2.55210   3
  -5  12   5 0.86544 1.77193   2
   5  -5  12 -1.2788 2.09679   1
   5   5 -12 1.08578 2.32067   4
 -12  -5  -5 -1.2673 1.73305   3
  -5 -12   5 2.27091 2.60103   2
  -5   5 -12 -2.7034 1.24272   4
  12   5   5 0.53418 1.94048   4
  -5  12  -5 2.17104 2.46304   1
   5  12   5 0.53295 2.65412   1
 -12   5  -5 3.14485 2.41651   4
 -12  -5   5 2.54551 2.83930   2
   5  -5 -12 -0.7206 1.94827   3
  -5  -5  12 5.74080 3.35222   2
   5   5  12 6.25840 3.56582   1
 -12  -5   5 1.75177 2.28566   3
   5 -12  -5 1.90053 2.02304   3
 -12   5  -5 2.58631 2.34233   3
  12  -5  -5 5.51075 3.30414   3
 -12  -7  -5 13.6759 5.98833   3
   7  -5  12 7.20743 4.22543   1
  -5 -12  -7 0.26957 2.46186   3
   5 -12   7 -1.0116 1.90388   2
  -7  -5 -12 6.58641 3.68420   3
   5  12  -7 7.19470 3.90416   1
  -5  12   7 2.95695 2.85825   1
  -7   5  12 0.62574 2.63030   2
   5  12  -7 3.77712 3.62032   4
 -12   7   5 8.87477 4.41703   2
  12   7  -5 2.67723 3.05665   4
   7   5 -12 -1.1624 2.18718   4
  -5  12   7 2.56745 2.58174   2
  -7  -5 -12 1.76477 2.09424   4
  -7   5 -12 14.9628 4.26436   4
  12  -7  -5 2.68534 2.49950   3
   7   5  12 6.58083 4.00316   1
   7  -5 -12 2.41357 2.44596   3
   5 -12  -7 4.40475 3.37048   3
  -5 -12   7 0.26475 2.09071   2
  12   7   5 0.52217 2.01533   4
  -7  -5  12 1.65711 3.10850   2
 -12  -7   5 3.64178 3.17722   2
  -5  12  -7 5.00228 2.91109   1
 -12  -7   5 4.74083 3.51930   3
   5  12   7 2.34713 2.92213   1
  -9  -5 -12 -0.7098 2.56235   3
 -12  -9  -5 4.67718 4.04502   3
   5  12  -9 1.77625 2.60457   4
   9   5 -12 0.30760 2.64206   4
  -9   5  12 6.64084 4.93066   2
  -5 -12  -9 1.42309 2.54538   3
   5 -12   9 4.76775 3.43398   2
  12   9  -5 2.36155 2.65454   4
 -12   9   5 2.18378 2.83709   2
  12  -9   5 16.6244 5.66018   2
  -5  12   9 0.81974 2.54570   1
  -5  12   9 4.47942 3.08561   2
   9  -5  12 1.78158 3.38940   1
  -9  -5 -12 3.52982 2.96097   4
 -12   9  -5 19.2716 5.92956   2
   9   5  12 0.34581 3.34741   1
  -9  -5  12 4.50347 3.78539   2
  -9   5 -12 5.93398 2.96173   4
  -5  12  -9 4.14685 2.72091   1
  12   9   5 4.50807 2.93063   4
   5  12   9 2.58820 4.03077   1
   9  -5 -12 2.27627 2.35271   3
  12  -9  -5 4.23272 3.68069   3
 -12  -9   5 2.01739 2.98557   2
   5 -12  -9 1.61404 2.72769   3
  -5 -12   9 2.57120 2.45783   2
 -11  -5 -12 -1.5319 2.07525   4
 -11   5  12 2.99344 4.59871   2
   5 -12  11 1.36476 3.65577   2
   5  12 -11 3.09471 2.48839   4
  11   5 -12 -0.7358 2.72391   4
  -5 -12 -11 4.07383 3.70824   3
 -12  11   5 -2.1166 3.09490   2
 -12 -11  -5 7.07019 5.18267   3
  12 -11   5 0.05721 3.79752   2
  12  11  -5 4.41839 3.74411   4
 -11  -5 -12 3.41071 3.36443   3
  11  -5  12 5.03794 3.56652   1
  11  -5 -12 1.19589 2.90452   3
 -11   5 -12 -0.1732 2.26448   4
 -11  -5  12 6.08466 4.17731   2
   5  12  11 1.51715 3.83585   1
  -5  12 -11 3.23686 3.76604   1
  11   5  12 4.52895 3.96390   1
  12 -11  -5 4.56198 3.81882   3
  -5 -12  11 -0.1829 2.38788   2
 -12  11  -5 1.70989 3.56268   2
   5 -12 -11 18.5993 7.20149   3
   0   6 -12 1169.91 33.4816   4
   0   6  12 1169.19 37.6683   1
  12   0   6 1262.48 34.4306   4
  12   0  -6 1184.13 37.4170   3
  -6  12   0 1125.72 35.8455   1
   0  -6  12 1217.27 36.7481   2
 -12   0  -6 1190.97 36.3209   3
 -12   0   6 1153.90 38.8153   2
  12   0  -6 1147.63 32.7477   4
   6  12   0 1164.30 36.4366   1
   6 -12   0 1204.01 37.7489   2
   6 -12   0 1135.40 35.6798   3
   0  -6 -12 1175.89 35.2188   3
   0  -6  12 1186.53 37.2752   1
  -6 -12   0 1208.61 35.6570   3
  -2   6  12 1367.93 40.2845   1
  12   2  -6 1385.58 37.5086   4
   2  -6  12 1399.71 38.6433   2
  12   2  -6 1407.84 41.0905   3
 -12  -2  -6 1397.37 41.0053   3
  -6  12   2 1423.71 41.4885   2
  -2  -6 -12 1365.54 38.8420   3
  -2  -6 -12 1333.70 33.6160   4
   6  12  -2 1426.56 40.3517   1
   2  -6  12 1393.72 41.8856   1
  -6 -12  -2 1341.65 39.9402   3
  12  -2   6 1398.97 36.9841   4
   2   6 -12 1425.34 38.3326   4
  -6  12   2 1356.21 39.2356   1
   6 -12   2 1394.22 41.4824   2
 -12   2   6 1422.41 43.5322   2
 -12   2  -6 1397.75 39.7186   3
   2  -6 -12 1380.72 39.1369   3
  -6  12  -2 1418.83 41.0972   1
  -2  -6  12 1405.30 39.8373   1
  -2   6 -12 1415.31 37.3159   4
   2   6  12 1402.96 42.9021   1
  12   2   6 1436.74 37.7996   4
  -2  -6  12 1422.67 41.0546   2
  -6 -12   2 1373.43 38.0069   2
   6 -12  -2 1368.18 40.5674   2
   6 -12  -2 1441.11 41.5674   3
  12  -2  -6 1473.45 36.5055   4
   6  12   2 1408.70 41.6766   1
  12  -2  -6 1457.60 42.7708   3
 -12  -2   6 1383.11 39.8908   3
 -12  -2   6 1357.05 41.3212   2
   4   6 -12 -1.6574 1.72536   4
  -4  -6 -12 4.12124 2.82249   3
  12  -4   6 -0.3112 1.73833   4
   6  12  -4 1.79876 2.06843   1
 -12  -4  -6 -0.9541 1.75314   3
  -6  12   4 9.79702 4.04328   1
   6 -12   4 7.92580 3.70341   2
 -12   4   6 9.82162 4.59258   2
   4  -6  12 32.5946 8.31088   1
   4  -6  12 8.20546 4.22443   2
  -4   6  12 6.71981 3.65015   2
  -4  -6 -12 2.72885 1.85962   4
  12   4  -6 8.79490 4.03348   4
  -6 -12  -4 1.55985 2.25330   3
  -6  12   4 0.35402 2.06485   2
  12   4   6 -1.2058 1.55417   4
 -12  -4   6 1.84726 2.50632   2
 -12   4  -6 5.09256 3.02173   4
  -6  12  -4 1.36075 1.87518   1
   6 -12  -4 1.06764 1.93822   3
   4   6  12 4.56174 3.19218   1
  -4  -6  12 13.1034 4.88963   2
  -6 -12   4 5.03271 3.37046   2
 -12  -4   6 3.54321 2.79911   3
   6  12   4 1.33866 2.65189   1
 -12   4  -6 5.57394 3.13682   3
  12  -4  -6 1.94947 2.98501   3
   4  -6 -12 5.80135 3.45637   3
  -4   6 -12 2.56085 1.85965   4
   6  -6  12 1322.98 43.0790   1
   6  12  -6 1224.25 34.3143   4
  -6  12   6 1303.76 40.3610   2
  -6  -6 -12 1258.68 38.7601   3
  12  -6   6 1269.64 34.4153   4
  12   6  -6 1316.62 38.1453   4
  -6  -6 -12 1267.49 34.5863   4
 -12   6   6 1239.61 41.5756   2
  -6 -12  -6 1291.49 41.5900   3
   6 -12   6 1280.87 40.6033   2
  -6  12   6 1288.52 38.6062   1
 -12  -6  -6 1278.89 41.3141   3
  -6   6  12 1242.30 40.7236   2
   6   6 -12 1191.29 36.3521   4
  -6  -6  12 1245.51 41.1935   2
  -6 -12   6 1279.05 40.4924   2
 -12   6  -6 1273.96 34.2795   4
   6  12   6 1279.02 42.3644   1
   6   6  12 1302.11 43.9746   1
  -6   6 -12 1340.45 37.0039   4
  12  -6  -6 1242.14 41.4958   3
 -12  -6   6 1301.29 40.1013   2
   6  -6 -12 1276.47 39.4525   3
  12   6   6 1294.04 36.6026   4
   6 -12  -6 1368.67 43.3222   3
  -6  12  -6 1256.99 41.2719   1
  -6  12   8 1014.25 35.8204   2
  -6 -12  -8 963.107 36.8205   3
 -12   8   6 949.579 36.7606   2
 -12  -8  -6 907.556 35.5763   3
   8   6 -12 937.625 32.5819   4
   6  12  -8 932.194 30.4488   4
  -8  -6 -12 989.620 31.2315   4
   6 -12   8 992.293 35.8714   2
  12   8  -6 971.077 33.1919   4
  -8   6  12 993.463 37.9768   2
   8  -6  12 977.354 37.6006   1
  -8  -6 -12 946.384 34.6016   3
  12  -8  -6 937.919 37.1328   3
 -12  -8   6 989.471 35.0718   2
  -6 -12   8 988.962 36.7684   2
   8   6  12 994.239 38.4818   1
  -8   6 -12 996.867 31.8995   4
  -6  12  -8 935.310 36.6069   1
  -8  -6  12 931.218 35.8758   2
  12   8   6 953.214 31.2697   4
   6  12   8 973.189 38.1039   1
   6 -12  -8 957.252 37.2621   3
   8  -6 -12 964.420 35.5615   3
 -10  -6 -12 990.547 36.8176   3
 -12 -10  -6 1015.30 39.6407   3
  10   6 -12 1004.51 35.0531   4
 -10   6  12 1006.72 40.7668   2
 -10  -6 -12 1008.48 33.6158   4
  12  10  -6 1000.02 34.8685   4
   6 -12  10 965.417 36.9057   2
  10  -6  12 1017.06 39.9585   1
   6  12 -10 998.497 33.3434   4
  -6  12  10 956.130 36.0478   2
  12 -10   6 979.009 36.1798   2
 -12  10   6 947.005 38.1132   2
  -6 -12 -10 1016.77 39.2722   3
 -12  10  -6 1005.82 37.2854   2
  -6 -12  10 1046.02 39.8581   2
  12  10   6 991.059 32.6853   4
   6  12  10 970.310 39.9050   1
  10   6  12 972.345 39.6819   1
 -10   6 -12 1003.00 33.7528   4
  -6  12 -10 1050.24 40.8876   1
  12 -10  -6 922.226 38.3855   3
   6 -12 -10 967.788 38.9697   3
 -12 -10   6 1010.82 36.7752   2
  10  -6 -12 1019.41 38.0361   3
 -10  -6  12 974.429 38.7967   2
  -7  12   1 17.8642 5.30841   1
   7 -12   1 1.61364 2.80311   2
 -12  -1  -7 2.84545 2.78429   3
   1  -7  12 4.68126 3.20718   1
  -7  12   1 5.07570 3.17549   2
  -7 -12  -1 0.32314 2.37052   3
  12  -1   7 21.5040 5.63973   4
   7  12  -1 0.69704 2.49721   1
  -1  -7 -12 6.52584 3.29308   3
   1  -7  12 1.55829 2.31215   2
   1   7 -12 2.60900 2.84813   1
 -12   1   7 6.99069 4.42155   2
   7 -12   1 3.06190 2.64369   3
  12   1  -7 4.77021 3.35939   3
   1   7 -12 4.49221 3.03817   4
  12   1  -7 0.48901 2.02127   4
  -1   7  12 2.85279 3.17120   1
  -1   7 -12 3.58125 2.49456   4
   7  12   1 6.71483 4.02351   1
 -12  -1   7 4.72641 3.61068   2
   7 -12  -1 -1.0650 2.21693   2
  12  -1  -7 3.18629 2.88300   3
  12   1   7 5.86720 2.80803   4
  -7 -12   1 12.1292 4.20873   3
  -1  -7  12 2.96227 2.84835   1
  -1  -7  12 1.13296 2.21062   2
   1  -7 -12 4.03099 2.71223   3
   1   7  12 7.73966 4.57701   1
  -7  12  -1 3.87228 2.93181   1
   7 -12  -1 1.20952 2.15680   3
 -12  -1   7 2.10125 2.76852   3
  12  -1  -7 4.14879 3.01998   4
 -12   1  -7 2.94508 2.75463   3
  -7  12   3 22.8995 6.38309   2
  -3   7  12 36.3159 7.96711   1
  -7 -12  -3 20.2346 5.86948   3
   7  12  -3 29.9194 7.04793   1
 -12   3   7 26.8574 7.08704   2
 -12  -3  -7 19.2389 5.94495   3
  12   3  -7 30.5382 6.53545   4
   3   7 -12 30.7201 6.89147   4
   3   7 -12 21.3655 6.28814   1
  -3  -7 -12 29.5965 6.50208   3
   7 -12   3 13.5912 5.12227   2
  -7  12   3 23.6865 5.78247   1
   3  -7  12 37.2277 8.27095   1
  12  -3   7 30.8305 10.2786   1
   3  -7  12 23.0317 5.91030   2
  12  -3   7 25.2836 5.71197   4
  -3  -7  12 25.8137 6.43410   2
  -3  -7  12 28.6705 6.59274   1
  -7  12  -3 30.8388 7.47385   1
   3  -7 -12 41.9780 7.98644   3
 -12   3  -7 18.2878 5.16881   3
  -7 -12   3 28.3195 6.30628   2
  12  -3  -7 23.5407 5.35783   4
  -3   7 -12 25.3194 5.69377   4
   7 -12  -3 29.5278 6.96722   3
 -12  -3   7 21.1006 6.32892   2
 -12  -3   7 21.9693 6.12746   3
  12   3   7 29.1953 6.49725   4
   3   7  12 35.6153 8.72317   1
   7  12   3 25.2876 6.71030   1
  12  -3  -7 38.6537 8.30804   3
 -12   3  -7 21.9407 5.61964   4
   5  -7  12 11.3434 5.05025   1
  12   5  -7 1.03859 2.51147   4
   5   7 -12 1.29033 2.58730   4
 -12   5   7 2.09062 3.11370   2
  -7 -12  -5 7.42754 4.08390   3
  -5   7  12 4.05338 3.37205   2
  12  -5   7 1.98074 3.93371   1
  -7  12   5 9.71761 5.62411   1
  -7  12   5 0.38996 2.05397   2
   7  12  -5 2.59934 2.54864   4
  -5  -7 -12 -0.3379 1.88516   4
 -12  -5  -7 2.60121 2.87715   3
   7 -12   5 -1.2508 1.82892   2
  -5  -7 -12 2.04202 2.54407   3
  12   5   7 3.39347 2.67317   4
  -7  12  -5 5.61657 3.40938   1
 -12  -5   7 -0.3444 2.11680   2
 -12   5  -7 2.32978 2.79993   4
  12  -5  -7 0.67505 2.62411   3
  -5  -7  12 0.95054 2.88058   2
  -7 -12   5 1.26842 2.36727   2
   7  12   5 3.42195 3.33249   1
   7 -12  -5 3.56779 3.09650   3
   5  -7 -12 3.30890 3.44455   3
   5   7  12 0.79240 3.67462   1
  -5   7 -12 -0.7522 1.76353   4
 -12  -7  -7 1.67109 3.19408   3
   7  -7  12 1.17401 3.25466   1
   7   7 -12 -2.2449 1.89821   4
  -7  12   7 3.60453 3.10543   2
  -7  -7 -12 -0.6985 2.18534   3
  -7  -7 -12 2.89248 2.15977   4
  -7 -12  -7 0.20056 2.69182   3
   7 -12   7 0.41187 2.64954   2
  12   7  -7 4.20656 3.58202   4
  -7   7  12 3.58930 3.52908   2
   7  12  -7 6.95938 3.40354   4
 -12   7   7 2.26109 3.05553   2
   7  12   7 -0.3250 2.62855   1
   7   7  12 0.92448 3.13717   1
  -7  -7  12 1.27035 3.19550   2
   7  -7 -12 5.79391 3.37716   3
   7 -12  -7 0.71064 2.76478   3
 -12  -7   7 2.37588 2.86276   2
  -7  12  -7 0.74104 1.90462   1
  -7   7 -12 6.11642 3.10415   4
  12  -7  -7 2.58411 2.54834   3
  12   7   7 1.47406 2.65181   4
  -7 -12   7 -0.7647 2.13244   2
 -12  -9  -7 4.61337 4.02124   3
   7  12  -9 16.0702 4.97586   4
  -7 -12  -9 8.45871 4.43698   3
 -12   9   7 2.73377 3.90578   2
  -7  12   9 11.0225 5.41065   2
  -9  -7 -12 12.7670 4.50894   4
  12   9  -7 8.47282 4.16574   4
   9   7 -12 4.19743 2.79660   4
   7 -12   9 8.70735 5.15456   2
  -9  -7 -12 4.67724 3.24505   3
   9  -7  12 14.6954 5.88501   1
  -9   7  12 13.7386 6.38771   2
  -9   7 -12 11.3378 4.59361   4
  -7  12  -9 14.9546 5.26374   1
   7 -12  -9 10.3752 4.77332   3
  -9  -7  12 9.63761 4.50652   2
   9   7  12 11.5197 5.61266   1
 -12  -9   7 11.6818 4.83392   2
   9  -7 -12 20.3942 6.27113   3
   7  12   9 13.7649 6.43240   1
  12   9   7 11.6729 4.67980   4
  12  -9  -7 10.9897 4.50221   3
  -7 -12   9 7.37852 4.27736   2
 -11  -7 -12 10.2828 4.96391   3
   7  12 -11 1.54110 3.19036   4
  12  11  -7 3.20254 3.61456   4
 -11  -7 -12 0.66616 2.73336   4
   7 -12  11 7.02667 4.35815   2
  11  -7  12 2.52308 3.54182   1
 -11   7 -12 7.35484 3.29500   4
 -12 -11   7 9.19727 4.77369   2
  11   7  12 3.94397 3.99346   1
  11  -7 -12 3.23983 3.09685   3
   0   8 -12 1423.98 38.4543   4
 -12   0  -8 1336.99 40.0544   3
 -12   0  -8 1410.23 38.4967   4
   0  -8  12 1421.04 42.2633   2
  12   0   8 1365.87 40.5843   1
   0   8  12 1414.74 43.8785   1
   0   8 -12 1398.87 43.2139   1
   8 -12   0 1348.88 40.9054   3
   0  -8  12 1415.70 42.8660   1
  -8  12   0 1375.21 42.7539   2
   8  12   0 1399.49 41.1371   1
  -8 -12   0 1419.07 41.2247   3
  -8  12   0 1396.51 40.8363   1
  12   0  -8 1469.34 38.8340   4
   0  -8 -12 1341.09 41.1519   3
  12   0   8 1396.22 38.6251   4
  12   0  -8 1395.30 41.9893   3
 -12   0   8 1457.84 45.2100   2
   8 -12   0 1440.16 43.0851   2
 -12  -2  -8 1117.04 36.3523   3
  -2   8  12 1095.90 36.7727   1
   8 -12   2 1109.44 37.5464   2
   2   8 -12 1084.84 36.0195   1
  -8  12   2 1079.74 34.3184   1
  12  -2   8 1065.17 34.9768   1
 -12   2   8 1075.91 39.2677   2
  -8 -12  -2 1093.97 36.6741   3
   2   8 -12 1051.59 32.8747   4
  12  -2   8 1102.04 33.1987   4
   2  -8  12 1087.62 37.4774   1
   2  -8  12 1062.24 35.0870   2
  12   2  -8 1045.58 35.0967   3
  -8  12   2 1083.07 37.3893   2
  -2  -8 -12 1094.41 36.1625   3
  12   2  -8 1051.57 33.2982   4
 -12  -2   8 1065.11 37.5840   2
  -2   8 -12 1049.78 37.1677   1
  12   2   8 1068.47 35.7572   1
  -2   8 -12 1082.58 32.5729   4
  12   2   8 1049.45 33.0315   4
  -2  -8  12 1100.17 37.7540   2
 -12  -2   8 1050.66 34.3992   3
  -2  -8  12 1028.01 35.0745   1
 -12   2  -8 1061.23 32.7045   4
   2   8  12 1098.29 38.9834   1
   2  -8 -12 1085.91 36.0460   3
  12  -2  -8 1099.18 37.0978   3
  12  -2  -8 1068.15 31.6508   4
 -12   2  -8 1080.23 34.1769   3
   8  12   2 1061.78 36.1156   1
  -8  12  -2 1078.61 35.6656   1
   8 -12  -2 1070.16 37.2800   3
 -12   4   8 5.29988 3.93422   2
   4  -8  12 2.41037 3.02103   1
   4  -8  12 5.72571 3.29129   2
  -4  -8 -12 2.61933 2.50377   3
 -12  -4  -8 14.1609 5.67211   3
   8  12  -4 7.38060 3.38710   4
  12   4  -8 3.84547 3.03465   4
  12  -4   8 15.3067 5.29815   1
  -8 -12  -4 7.88979 4.48523   3
  -8  12   4 13.9495 5.52298   2
   4   8 -12 19.1718 5.62680   4
  -8 -12   4 13.0954 4.96341   2
   8 -12  -4 4.46183 3.36015   3
   4  -8 -12 11.6432 4.90602   3
  12   4   8 16.6547 5.25266   1
 -12  -4   8 9.02857 4.79803   2
  -4   8 -12 11.7839 4.45187   4
   8  12   4 2.33454 3.05612   1
   4   8  12 6.90295 3.89905   1
  12  -4  -8 8.51058 4.50832   3
 -12   4  -8 8.05863 3.27521   4
  -4   8 -12 7.78901 4.28820   1
  12   4   8 7.41880 3.63420   4
  -4  -8  12 8.89621 4.36984   2
  -8  12  -4 7.49708 3.66423   1
   8 -12   6 973.244 35.6662   2
  -8  12   6 916.152 35.2754   2
  -6   8  12 957.380 35.6099   2
  12  -6   8 916.600 33.6357   1
  -6  -8 -12 940.707 34.9016   3
 -12  -6  -8 991.319 36.6550   3
   8  12  -6 973.445 30.8967   4
  12   6  -8 964.027 33.2918   4
   6   8 -12 929.859 32.2447   4
  -8 -12  -6 963.831 36.9858   3
   6  -8  12 948.050 37.1781   1
 -12   6   8 1049.68 39.0031   2
  -6   8 -12 911.903 30.6631   4
   6   8  12 980.199 38.4399   1
  -8  12  -6 949.953 35.8114   1
 -12   6  -8 922.084 33.5997   1
  -6  -8  12 987.321 37.2351   2
 -12  -6   8 947.460 35.5046   2
  -8 -12   6 985.120 35.5606   2
   6  -8 -12 977.198 35.5580   3
   8  12   6 939.261 36.8659   1
 -12   6  -8 979.948 30.8500   4
  12  -6  -8 988.774 37.1389   3
  12   6   8 966.198 32.1154   4
   8 -12  -6 1017.47 38.4605   3
   8  -8  12 1097.67 41.2733   1
  -8  12   8 1036.70 38.8134   2
  -8  -8 -12 1083.51 39.0604   3
  -8  -8 -12 1167.66 50.3000   4
   8 -12   8 1029.30 37.6975   2
  -8   8  12 1059.87 40.2792   2
 -12   8   8 1048.53 40.4572   2
  -8 -12  -8 1046.15 39.8532   3
  12   8  -8 1129.71 37.2570   4
 -12  -8  -8 1123.69 40.7856   3
   8   8 -12 1026.57 35.5230   4
   8  12  -8 1100.99 34.7366   4
  -8  -8  12 1064.85 40.1954   2
   8   8  12 1098.21 42.5210   1
  12  -8  -8 1067.25 40.8217   3
  -8   8 -12 1028.90 33.6660   4
  12   8   8 1094.58 34.9408   4
   8 -12  -8 1103.75 41.6799   3
 -12   8  -8 1006.35 37.3537   1
  -8 -12   8 1054.23 39.4339   2
 -12  -8   8 1045.45 38.4280   2
   8  -8 -12 1077.42 39.6397   3
  -8  12  -8 1102.69 40.6625   1
   8  12   8 1096.43 41.6948   1
  -8   8 -12 1028.87 39.9520   1
 -10  -8 -12 626.092 26.0235   4
 -10  -8 -12 598.587 29.7124   3
   8 -12  10 572.824 28.2478   2
  -8  12  10 609.745 30.0568   2
   8  12 -10 625.956 26.7925   4
 -10   8  12 584.127 31.2424   2
  10  -8  12 610.486 31.6237   1
  12  10  -8 585.209 27.6298   4
  10  -8 -12 579.459 29.3684   3
 -12 -10   8 618.632 29.7486   2
   8  12  10 637.473 37.0801   1
  -8 -12  10 645.555 40.5726   2
 -10   8 -12 639.511 32.2288   1
 -12  10  -8 600.171 39.6354   1
  10   8  12 669.788 33.0869   1
 -10   8 -12 635.978 39.9452   4
 -12  -1  -9 3.24506 2.68700   4
  -9  12   1 1.89683 3.20858   2
  12  -1   9 3.21984 3.23528   1
  12  -1   9 0.57430 2.14274   4
 -12   1   9 2.88882 2.92194   2
  -9 -12  -1 5.01821 3.56536   3
  -1  -9 -12 10.7504 4.52779   3
  12   1  -9 2.93142 2.58558   4
   1   9 -12 2.27945 2.88844   1
   1   9 -12 0.90612 2.63591   4
   9 -12   1 1.90629 3.18724   2
   1  -9  12 5.18530 3.42454   2
   9 -12   1 2.34531 2.51221   3
  12   1  -9 3.41331 2.79468   3
 -12  -1  -9 6.36705 3.47884   3
  -1   9  12 5.21944 3.30629   1
   1  -9  12 0.07422 2.21813   1
  -9  12  -1 2.29582 2.66027   1
   1  -9 -12 4.74983 3.60767   3
 -12  -1   9 7.37744 4.21657   2
   9 -12  -1 0.15837 1.91617   3
  -1   9 -12 1.21217 2.71306   1
   1   9  12 -0.4504 2.39001   1
  12   1   9 9.28179 4.06301   1
  -9  12  -1 0.70825 2.73436   2
  12  -1  -9 6.72209 4.22660   3
  -9 -12   1 1.59317 2.56764   3
 -12  -1   9 2.58263 2.70929   3
 -12   1  -9 -1.6973 1.71311   4
  12   1   9 2.19894 2.69780   4
  -1   9 -12 0.78979 2.25262   4
  12  -1  -9 2.58061 2.73405   4
  -1  -9  12 2.25258 2.76204   2
  -9  12   3 3.12369 3.45769   2
  12  -3   9 3.45440 3.02456   1
   3   9 -12 8.62347 3.95028   1
  12   3  -9 12.2426 4.62349   4
   9  12  -3 7.48417 3.48830   4
   3  -9  12 3.53098 3.09261   2
   9 -12   3 6.52765 4.12024   2
   3  -9  12 6.32040 3.65485   1
 -12  -3  -9 7.23898 4.70700   3
   3   9 -12 3.46778 2.97113   4
 -12  -3  -9 6.48704 3.84196   4
  -3   9  12 2.46926 2.82025   1
 -12   3   9 0.80751 3.58602   2
  -3  -9 -12 6.47196 3.76868   3
  -9 -12  -3 4.80455 4.01384   3
   9  12   3 1.93875 2.38072   1
  -3   9 -12 1.52821 3.09296   1
  12   3   9 6.10238 3.51018   4
   3   9  12 7.68829 4.26356   1
  -3   9 -12 4.68449 3.30884   4
  -9  12  -3 11.4989 4.25591   1
 -12   3  -9 8.10738 3.63729   4
   3  -9 -12 10.3240 4.68254   3
 -12  -3   9 -0.7511 2.70564   2
  12  -3  -9 10.0441 4.44038   3
  -3  -9  12 4.72839 3.37041   2
  12   3   9 9.49072 4.82939   1
   9 -12  -3 6.23150 3.77290   3
   5  -9  12 1.70184 2.39111   1
   9 -12   5 0.13052 2.95557   2
 -12  -5  -9 4.40350 3.33253   3
  -9 -12  -5 4.18293 3.88615   3
  12   5  -9 -2.5108 2.52165   4
   9  12  -5 0.75953 2.97982   4
  12  -5   9 3.84699 2.63273   1
   5   9 -12 4.72583 3.33188   4
   5  -9  12 2.11563 2.54027   2
  -9  12   5 1.69647 2.93581   2
  -5  -9 -12 2.43294 2.87144   3
 -12   5   9 4.48837 4.10192   2
   9  12   5 2.59553 2.86035   1
   9 -12  -5 7.05067 4.35224   3
  12  -5  -9 2.61731 2.53966   3
  12   5   9 16.8856 5.78860   1
   5   9  12 4.80063 4.53911   1
  -9  12  -5 22.1249 6.06220   1
  -5  -9  12 7.31475 4.64139   2
   5  -9 -12 2.78058 2.48996   3
  -5   9 -12 -0.7029 3.31757   1
  -9 -12   5 0.20204 2.33724   2
 -12   5  -9 3.57328 2.84275   4
  -5   9 -12 9.78160 4.26420   4
 -12  -5   9 1.93681 2.95442   2
  12   5   9 3.16850 2.85281   4
  -9  12   7 11.4770 5.31785   2
  -9 -12  -7 17.6801 6.45446   3
  12  -7   9 12.9171 5.69533   1
   7   9 -12 13.0141 4.57878   4
   7  -9  12 13.8732 6.04123   1
 -12  -7  -9 7.98350 4.58137   3
  12   7  -9 5.69027 3.79739   4
  -7  -9 -12 11.3096 4.95857   3
   9 -12   7 17.0458 6.16683   2
 -12   7   9 7.99208 5.32906   2
   9  12  -7 8.82523 3.85798   4
  -7   9  12 5.20244 4.30108   2
   9  12   7 7.13206 4.95462   1
   7  -9 -12 9.58721 4.96753   3
   7   9  12 14.5581 6.31461   1
  -9 -12   7 12.8687 5.20555   2
  -9  12  -7 16.0235 4.82535   1
 -12  -7   9 10.8444 4.94258   2
  12   7   9 4.47814 3.90740   1
  -7  -9  12 4.89901 3.93102   2
  -7   9 -12 8.55824 4.47509   1
  -7   9 -12 14.2958 4.47293   4
   9 -12  -7 14.1307 6.21249   3
 -12   7  -9 9.87735 4.48250   1
  12   7   9 11.7583 4.87206   4
  12  -7  -9 13.2419 5.11347   3
  -9   9  12 2.73006 4.46011   2
   9 -12   9 -2.3042 2.68700   2
   9   9 -12 0.35831 2.45054   4
  12   9  -9 3.44857 4.12958   4
  -9  -9 -12 4.88510 3.61391   3
 -12  -9  -9 3.31941 5.23520   3
  -9  12   9 -0.2801 2.95484   2
   9  -9  12 4.11782 4.96988   1
   9  12  -9 -0.3107 3.15784   4
   9  -9 -12 -1.2560 2.22853   3
  12   9   9 -0.0011 2.82507   4
   9  12   9 -1.4286 3.17042   1
  -9   9 -12 0.65042 4.08560   1
  -9 -12   9 3.58322 3.70312   2
 -12   9  -9 1.56745 3.34544   1
 -12  -9   9 -0.1736 2.68526   2
  12  -9  -9 -2.1414 3.80298   3
  -9  12  -9 5.33503 3.83132   1
   9   9  12 6.67998 4.76530   1
 -12   0  10 858.625 35.4267   2
 -10  12   0 873.981 34.6927   2
 -12   0 -10 832.679 29.9523   4
   0 -10 -12 841.737 33.3156   3
  12   0 -10 885.275 30.5442   4
  12   0  10 810.866 32.7189   1
 -10 -12   0 892.658 33.6769   3
   0  10  12 868.006 35.0176   1
  10 -12   0 900.889 34.1696   3
   0  10 -12 886.283 30.0518   4
   0  10 -12 833.107 33.8102   1
  12   0  10 875.918 30.8992   4
   0 -10  12 891.834 34.5112   2
 -12   2  10 1170.41 43.0938   2
   2  10 -12 1148.72 39.5469   1
 -12  -2 -10 1184.73 36.5309   4
 -12  -2 -10 1163.68 38.5609   3
  12  -2  10 1209.47 40.4551   1
  10 -12   2 1153.74 40.1394   2
   2 -10  12 1169.91 39.4457   2
   2  10 -12 1117.18 35.1280   4
  10  12  -2 1061.89 32.8121   4
  -2  10  12 1097.73 39.3476   1
  12   2 -10 1142.82 36.2462   4
 -10  12   2 1129.11 40.3808   2
  -2 -10 -12 1144.02 39.7327   3
 -10 -12  -2 1138.35 39.8938   3
 -10  12  -2 1095.34 39.5690   2
 -12   2 -10 1116.81 35.4571   4
  -2  10 -12 1166.92 34.8450   4
  12   2  10 1185.92 36.6985   4
   2  10  12 1110.17 41.2786   1
   2 -10 -12 1168.78 40.0733   3
  12  -2 -10 1126.46 34.1595   4
  -2 -10  12 1201.74 41.1860   2
  12  -2 -10 1223.49 40.2395   3
 -12  -2  10 1160.53 41.2266   2
  10 -12  -2 1145.62 40.5833   3
  -2  10 -12 1126.50 41.2696   1
  12   2  10 1191.07 40.4758   1
  12  -4  10 4.00629 2.85382   1
 -10  12   4 0.73408 2.93337   2
   4 -10  12 6.97159 4.00691   2
   4  10 -12 6.95019 4.09278   4
 -10 -12  -4 21.3118 7.06152   3
 -12  -4 -10 0.50204 2.86285   3
 -12   4  10 3.34390 4.62181   2
  10  12  -4 8.88259 4.10053   4
  12   4 -10 5.23760 3.57797   4
 -12  -4 -10 3.79601 3.28290   4
  -4 -10 -12 22.8216 6.48556   3
  10 -12   4 2.87473 3.67726   2
 -12   4 -10 3.86210 2.79904   4
  12   4  10 2.60814 3.66938   1
  12   4  10 2.05532 2.50249   4
   4  10  12 7.07971 3.80940   1
   4 -10 -12 2.31055 2.84873   3
  -4  10 -12 2.80453 4.05764   1
 -10  12  -4 4.34579 2.87504   1
  10 -12  -4 1.05495 2.79004   3
 -12  -4  10 7.52073 4.63451   2
  -4 -10  12 1.08169 2.53559   2
  -4  10 -12 1.52606 2.97207   4
   6 -10  12 1103.17 55.8733   2
  12  -6  10 957.925 37.4624   1
  12   6 -10 1003.39 35.6087   4
  10 -12   6 1029.25 38.3262   2
 -12   6  10 1001.88 41.0041   2
   6  10 -12 976.661 34.2414   4
 -12  -6 -10 993.941 37.9357   3
 -12  -6 -10 1017.80 34.0928   4
 -10 -12  -6 964.925 38.4910   3
 -10  12   6 969.368 38.5958   2
  -6 -10 -12 985.373 38.1831   3
  10  12  -6 1023.99 33.9471   4
   6 -10  12 1039.19 41.0261   1
  10  12   6 1059.26 39.9985   1
  12   6  10 1039.72 39.7861   1
   6 -10 -12 1012.27 38.6005   3
   6  10  12 1010.90 41.0946   1
 -12  -6  10 982.891 38.2295   2
 -12   6 -10 1036.05 33.5507   4
 -10 -12   6 1016.92 37.1597   2
  12   6  10 1044.07 34.6356   4
 -10  12  -6 987.777 37.3818   1
  -6  10 -12 993.368 40.1762   1
  12  -6 -10 935.423 37.5472   3
  -6 -10  12 1006.41 39.3024   2
  10 -12  -6 1017.05 39.9488   3
  10  12  -8 613.975 26.7877   4
 -10  12   8 601.441 34.4810   2
  10 -12   8 601.009 28.9137   2
  12  -8  10 606.556 29.9398   1
   8  10 -12 573.786 26.8327   4
 -12  -8 -10 625.578 26.4388   4
 -12  -8 -10 628.569 31.6887   3
  -8 -10 -12 632.689 30.6808   3
  -8  10  12 618.046 30.6083   2
  12   8  10 637.771 26.7018   4
  10  12   8 553.927 30.0122   1
 -10 -12   8 606.822 30.0658   2
 -10  12  -8 636.009 30.8898   1
  12  -8 -10 576.249 33.8098   3
 -12   8 -10 599.924 29.8141   1
   8 -10 -12 623.808 31.4030   3
  12   8  10 616.146 30.6103   1
 -12  -8  10 605.796 30.6898   2
  12  -1  11 20.0649 6.62664   1
  12   1 -11 25.2242 6.41674   4
 -11 -12  -1 30.4114 7.76990   3
  11  12  -1 21.0638 5.63196   4
   1  11 -12 17.1174 6.63793   1
 -12  -1 -11 14.2194 5.17476   4
  -1 -11 -12 14.1962 5.64606   3
 -11  12   1 15.0706 6.35628   2
  11 -12   1 27.4803 7.50728   3
   1  11 -12 25.4229 6.64382   4
   1 -11  12 26.0290 7.28171   2
 -12   1  11 23.4978 8.44318   2
  -1  11  12 20.8639 6.84541   1
  12  -1 -11 26.1044 6.33316   4
  -1  11 -12 16.4196 6.81775   1
 -12   1 -11 27.5288 6.97329   4
   1  11  12 26.9313 7.31067   1
   1 -11 -12 14.9348 5.84458   3
 -11  12  -1 20.9184 7.03523   2
  -1 -11  12 22.5116 7.29761   2
 -11 -12   1 22.5282 6.98584   3
  11 -12  -1 21.1358 6.95694   3
  12   1  11 24.1776 7.31813   1
  -1  11 -12 23.7097 6.05671   4
 -12  -1  11 16.6129 6.34702   2
  11  12  -3 4.47944 3.46885   4
  11 -12   3 -0.2090 3.47966   2
 -11 -12  -3 4.01064 4.17230   3
 -12  -3 -11 -1.2249 2.52422   4
  -3  11  12 7.35750 3.76505   1
 -12  -3 -11 3.38072 3.61212   3
   3 -11  12 -0.4275 2.63796   2
   3  11 -12 -0.5918 3.09388   4
  12   3 -11 2.10982 3.03261   4
 -12   3  11 3.88953 4.53614   2
  -3 -11 -12 3.73902 3.25066   3
 -11  12   3 2.12779 3.04918   2
  12  -3  11 1.24009 2.93141   1
  11 -12  -3 2.15773 3.43924   3
  -3  11 -12 7.05247 5.10262   1
 -12   3 -11 -2.6257 1.83072   4
 -12  -3  11 5.20029 3.61053   2
  -3 -11  12 1.60509 3.73231   2
  12   3  11 19.2879 6.72244   1
   3 -11 -12 0.58671 3.08725   3
   3  11  12 12.0388 5.20748   1
  12  -3 -11 -2.4523 2.24633   3
 -11  12  -3 -0.7200 3.34078   2
 -11  12   5 -1.3645 2.36529   2
  12   5 -11 4.51514 3.78632   4
 -11 -12  -5 2.01971 3.89558   3
  -5 -11 -12 -0.0983 2.43609   3
 -12  -5 -11 6.91605 3.90129   4
 -12   5  11 2.36299 4.50060   2
 -12  -5 -11 2.54581 3.52017   3
   5 -11  12 -0.2118 2.86501   2
   5  11 -12 -1.9114 2.23972   4
  12  -5  11 1.49472 3.53342   1
  11  12  -5 4.61849 3.52662   4
  11 -12   5 5.28318 4.50670   2
  11 -12  -5 1.32816 3.81448   3
  -5 -11  12 1.88535 3.13781   2
  12   5  11 0.79930 2.99762   4
   5  11  12 -1.0880 3.11717   1
  12  -5 -11 1.57466 3.43429   3
 -12  -5  11 7.84120 4.72275   2
 -11  12  -5 -0.8755 2.90063   2
  12   5  11 6.88933 5.04415   1
  -5  11 -12 2.20865 3.50623   1
   5 -11 -12 0.20043 2.69108   3
 -12   5 -11 4.01211 2.64623   4
 -12  -7 -11 1.85818 3.40229   4
 -12  -7 -11 -0.9921 2.79548   3
  11  12  -7 4.30535 3.68177   4
   7  11 -12 5.12519 4.20342   4
  11 -12   7 4.64144 4.31128   2
  12  -7  11 3.28348 3.80994   1
  12  -7 -11 3.65901 3.51010   3
 -11  12  -7 2.17935 3.18766   1
  12   7  11 11.8451 4.98529   1
  12   7  11 1.49230 2.91230   4
 -12   7 -11 9.01685 4.46444   1
 -12   7 -11 4.58673 3.09158   4
 -11 -12   7 -0.3045 2.50909   2
 -12 -12   0 18.0594 6.73631   3
 -12   0 -12 16.8052 5.60219   4
 -12   0  12 15.0737 6.91742   2
 -12  12   0 23.1778 7.63496   2
   0 -12 -12 13.9190 5.22454   3
   0 -12  12 11.0130 5.23104   2
   0  12 -12 23.8704 7.74790   1
   0  12  12 20.0844 6.47156   1
  12 -12   0 17.2488 6.53663   3
  12   0 -12 18.6853 5.90553   4
  12   0  12 18.7654 6.40490   1
  12  12   0 17.6441 5.06003   4
 -12 -12  -2 4.47342 4.93213   3
 -12  -2 -12 1.88638 2.99389   4
  12   2 -12 7.35987 3.95129   4
  -2 -12 -12 3.74622 3.41806   3
 -12   2  12 3.23520 4.61306   2
  12  -2  12 -1.1138 3.18113   1
 -12  12   2 -0.4758 3.49785   2
  -2  12  12 3.96158 3.87723   1
  12  12  -2 -2.9044 2.37238   4
   2  12 -12 1.76048 3.73415   1
   2 -12  12 -0.0701 3.19596   2
   2 -12 -12 -1.8916 2.35977   3
 -12   2 -12 -0.0856 2.28298   4
  -2  12 -12 -0.9039 3.06657   1
   2  12  12 -1.6935 2.84408   1
  12 -12  -2 1.96319 3.15625   3
 -12  12  -2 -0.1104 2.80680   2
 -12  -2  12 4.49409 4.34052   2
  12   2  12 4.42075 3.99680   1
  -2 -12  12 5.10106 4.78738   2
 -12 -12  -4 626.989 32.0834   3
 -12  -4 -12 611.181 27.5904   4
  12   4 -12 611.245 30.8796   4
 -12   4  12 615.919 42.1677   2
  12  12  -4 634.482 26.8113   4
  -4 -12 -12 619.516 31.3474   3
  12  -4  12 650.199 31.1816   1
   4 -12  12 661.286 30.4970   2
   4  12 -12 628.132 26.4161   4
  12 -12   4 623.900 30.3148   2
  12 -12  -4 622.965 31.7953   3
  12  -4 -12 637.743 32.6101   3
   4 -12 -12 627.576 31.6219   3
 -12   4 -12 585.218 25.9531   4
  12   4  12 652.653 31.9420   1
 -12  12  -4 625.227 30.3550   2
 -12  -6 -12 2.35452 3.46631   3
  12 -12   6 3.77354 4.32715   2
  12  12  -6 2.34462 3.81761   4
   6 -12  12 4.63299 4.43224   2
   6  12 -12 -2.1766 3.08481   4
 -12   6 -12 -0.9257 2.85038   4
  12  -6 -12 15.8006 6.34403   3
  12   6  12 0.43303 4.11819   1
 -12  12  -6 1.07857 3.24417   2
   0 -13   1 3.33590 2.47443   2
   0 -13   1 0.55251 1.30501   3
   0  13  -1 0.66791 1.96009   1
   0  13   1 1.09636 1.85542   1
   1   0 -13 0.87460 1.89855   4
   1   0  13 4.60902 3.49516   1
  13  -1   0 0.15853 1.73541   4
  13   1   0 11.0749 3.89505   4
   0 -13  -1 2.13943 2.22274   3
  -1   0  13 3.80693 2.58886   1
  -1   0  13 0.06625 1.29036   2
   0 -13  -1 3.50945 2.76607   2
 -13   1   0 1.61304 2.19992   3
  -1   0 -13 -0.8618 1.97586   4
 -13   1   0 -0.4510 1.76655   2
 -13  -1   0 3.40636 2.98287   3
  -3   0  13 16.4784 5.07572   2
  -3   0  13 2.12659 2.46943   1
 -13   3   0 4.36068 2.97002   3
  -3   0 -13 1.46513 1.72987   4
  13  -3   0 1.21082 2.35090   3
  13  -3   0 1.59554 1.88658   4
  13   3   0 3.32527 2.33730   4
   3   0  13 1.79670 2.03490   1
   3   0 -13 0.74369 2.16972   4
 -13  -3   0 -1.3077 1.32802   3
 -13   3   0 1.27323 1.99450   2
   0 -13  -3 1.85421 2.27945   2
   0 -13  -3 2.09365 2.52297   3
   0 -13   3 -1.3551 1.60380   2
   0  13  -3 14.5737 5.06256   1
   0  13   3 4.11455 2.56608   1
  13   5   0 -2.1982 1.56297   4
  -5   0 -13 1.36913 2.11797   4
  -5   0  13 -0.7668 2.05556   2
 -13   5   0 -1.1119 2.06335   2
 -13  -5   0 1.62517 1.99762   3
   0 -13  -5 -0.6320 1.65102   3
   0  13   5 2.49654 3.07506   1
   5   0 -13 0.08191 2.13465   4
   5   0  13 1.85514 2.34014   1
  13  -5   0 -0.0173 2.05354   3
   0  13  -5 7.77967 3.96215   1
   0 -13   5 4.33801 3.02325   2
   7   0 -13 0.67458 2.21850   4
   0 -13   7 5.90315 3.95595   2
  13  -7   0 5.73567 3.29560   3
  13   7   0 -1.0283 2.06816   4
   0 -13  -7 2.32624 2.54212   3
   0  13  -7 0.54500 2.09695   1
   7   0  13 0.61349 2.73949   1
  -7   0  13 4.76905 3.29086   2
 -13  -7   0 -0.1318 1.86389   3
 -13   7   0 13.6954 5.29572   2
  -7   0 -13 1.01105 1.81454   4
   0  13   7 7.55941 3.83885   1
   9   0  13 5.24422 4.25593   1
  13  -9   0 4.47033 3.83822   3
  13   9   0 -2.8543 2.18907   4
   0 -13   9 3.54270 3.31085   2
   0  13  -9 9.13976 4.58245   1
   0  13   9 4.45134 3.39866   1
   9   0 -13 0.64230 2.15692   4
  -9   0  13 -0.4295 3.30707   2
  -9   0 -13 5.04038 3.18753   4
 -13  -9   0 1.57681 3.13162   3
   0 -13  -9 8.27881 4.04504   3
 -13   9   0 0.58944 2.61868   2
 -11   0 -13 4.55846 3.34741   4
   0 -13 -11 4.26230 3.75975   3
   0  13 -11 1.13883 3.04456   1
   0 -13  11 -0.0726 2.93688   2
 -11   0  13 -2.2830 3.27372   2
   0  13  11 4.12015 3.50692   1
  11   0 -13 -0.7772 2.75865   4
 -13 -11   0 1.97477 3.49243   3
  11   0  13 -1.1757 2.85718   1
  13 -11   0 5.05688 4.11728   3
  13  11   0 13.4366 5.27085   4
 -13  11   0 1.45152 3.57112   2
   0  -1  13 3.93064 2.42066   1
   0  -1 -13 4.01287 2.46882   4
 -13   0  -1 0.12357 2.14556   3
 -13   0   1 0.57117 2.62209   2
 -13   0   1 5.06910 3.24659   3
  -1 -13   0 5.14718 2.88479   3
  13   0  -1 0.02825 1.98056   4
   1  13   0 2.74149 2.98367   1
   0   1 -13 3.98401 2.48772   4
   0   1  13 -0.3719 1.74296   1
  -1 -13   0 -0.7470 1.93086   2
   1 -13   0 9.23788 3.87508   3
  -1  13   0 0.55198 1.99947   1
  13   0   1 0.58459 1.98552   4
   1 -13   0 5.53750 2.80129   2
   1  13  -2 179.584 13.6625   1
   1 -13   2 195.138 13.8672   2
  -2  -1 -13 203.774 12.3899   4
 -13   2   1 202.320 14.6216   3
  -1 -13  -2 195.098 12.7727   2
  13   2  -1 181.363 11.9813   4
  -1  13   2 198.590 14.3470   1
   2  -1  13 204.251 14.8536   1
   2   1 -13 185.906 12.2573   4
 -13   2   1 198.766 13.6254   2
  -2   1  13 213.529 13.3039   2
 -13  -2  -1 189.473 14.1223   3
  13  -2   1 183.921 11.5657   4
  -1 -13  -2 210.620 14.0777   3
  -2   1  13 195.307 13.2600   1
   1 -13  -2 194.317 13.5277   3
  -1 -13   2 183.039 13.1707   2
  -2   1 -13 213.428 12.8734   4
  13   2   1 194.802 12.3558   4
   1 -13  -2 204.705 13.6108   2
   2   1  13 187.462 14.2683   1
  13  -2  -1 201.632 15.0321   3
  -1  13  -2 195.167 14.4048   1
   1  13   2 189.301 14.2578   1
   2  -1 -13 184.645 11.8545   4
 -13   2  -1 192.254 14.3553   2
 -13  -2   1 207.653 14.7872   3
  -2  -1  13 192.655 13.2988   1
 -13   2  -1 191.102 14.2119   3
  13  -2  -1 191.947 11.6042   4
  -2  -1  13 200.015 13.2085   2
  -4   1  13 5.19154 3.56454   2
 -13   4   1 0.69680 2.06457   2
   1  13  -4 1.57058 2.14188   1
  -1 -13  -4 11.2068 4.52112   3
   4  -1  13 4.83809 3.15014   1
  -4  -1 -13 7.77306 3.30381   4
  13  -4   1 4.26942 3.40586   3
  13  -4   1 8.98791 3.36551   4
  13   4  -1 10.9327 4.39749   4
   1 -13   4 10.0860 3.91109   2
 -13  -4  -1 5.44230 3.07877   3
   4   1 -13 0.58949 2.10119   4
  -1  13   4 3.78922 2.88589   1
 -13   4  -1 7.05735 3.69636   3
   4  -1 -13 5.50578 2.80288   4
  -1 -13   4 0.79638 1.96088   2
   1  13   4 3.81037 3.04196   1
   4   1  13 2.80952 2.77435   1
  -1  13  -4 9.43296 3.96567   1
   1 -13  -4 2.46882 2.57749   2
   1 -13  -4 3.48673 2.48887   3
  -4   1 -13 6.65194 2.92347   4
 -13  -4   1 6.61414 3.53869   3
  13  -4  -1 3.38523 3.22111   3
  13   4   1 4.08218 2.72506   4
 -13   4  -1 4.08989 2.65764   2
  13  -4  -1 5.36688 2.68346   4
  -4  -1  13 0.68606 2.17343   2
  13  -6   1 192.933 15.0738   3
  -1  13   6 230.021 16.3368   1
  -6  -1 -13 229.744 13.9180   4
  -6   1  13 235.677 16.1669   2
   6   1 -13 213.959 13.7655   4
   6  -1  13 203.326 16.0861   1
   1 -13   6 222.362 15.7946   2
  -1 -13  -6 209.332 15.5448   3
   1  13  -6 221.991 15.8080   1
 -13   6   1 217.389 15.4404   2
  13   6  -1 215.535 13.9510   4
 -13  -6  -1 225.552 16.0747   3
   6  -1 -13 234.003 14.0149   4
   1  13   6 211.775 16.0091   1
  -6   1 -13 215.544 13.5582   4
 -13  -6   1 211.990 15.3577   3
  -6  -1  13 209.490 15.3470   2
  -1 -13   6 228.717 16.0558   2
   6   1  13 233.560 17.3107   1
  13   6   1 236.531 14.2620   4
   1 -13  -6 222.591 15.8560   3
  13  -6  -1 210.152 16.0546   3
  -1  13  -6 209.162 15.7254   1
 -13   6  -1 212.017 15.0086   2
  13   8  -1 1.36845 2.82741   4
   8   1 -13 0.69561 2.07108   4
  -8  -1 -13 5.27382 3.23315   4
 -13  -8  -1 6.75541 4.39533   3
  -1 -13  -8 1.41132 2.55631   3
  13  -8   1 5.37967 3.99972   3
   1 -13   8 3.24313 2.92799   2
   8  -1  13 1.66249 3.55425   1
   1  13  -8 3.88276 3.23669   1
  -8   1  13 2.45725 3.20914   2
  -1  13   8 1.15046 2.84777   1
 -13   8   1 4.83825 3.87014   2
   1 -13  -8 1.10234 2.71056   3
  -8  -1  13 -2.0245 2.40280   2
   1  13   8 5.69126 3.38292   1
  -8   1 -13 3.44415 2.47790   4
   8   1  13 3.37909 3.69292   1
  13  -8  -1 -1.8110 1.97272   3
  -1  13  -8 4.73901 3.81722   1
  -1 -13   8 -1.1636 2.09931   2
   8  -1 -13 -1.2064 1.84333   4
 -13  -8   1 -0.6094 2.34223   3
 -13   8  -1 4.45269 3.77115   2
  13   8   1 0.33439 2.43257   4
   1  13 -10 177.025 15.6735   1
  10  -1  13 175.631 16.2682   1
  13 -10   1 203.218 16.7230   3
  10   1 -13 210.899 14.8252   4
   1 -13  10 211.389 17.1671   2
 -13 -10  -1 189.532 16.4224   3
  13  10  -1 204.183 14.5240   4
 -10  -1 -13 211.909 15.0251   4
 -10   1  13 218.751 18.0838   2
  -1 -13 -10 207.540 16.8091   3
  -1  13  10 228.915 17.5961   1
 -13  10   1 211.412 17.0264   2
  13  10   1 189.548 13.5929   4
 -10  -1  13 182.710 16.5541   2
  -1  13 -10 221.675 17.9221   1
   1  13  10 217.290 17.4252   1
   1 -13 -10 227.859 17.7814   3
 -13 -10   1 227.615 17.3395   3
  13 -10  -1 214.807 17.5597   3
  10   1  13 194.326 17.0190   1
  -1 -13  10 222.055 17.5826   2
 -13  10  -1 234.808 17.7318   2
  10  -1 -13 201.840 14.2322   4
 -10   1 -13 166.774 13.1672   4
  12  -1  13 4.10394 4.00134   1
  -1  13  12 6.48838 5.04053   1
   1  13 -12 7.49978 4.06428   1
  13  12  -1 5.22302 3.91552   4
  12   1 -13 10.5769 4.10107   4
 -13 -12  -1 8.27000 5.06440   3
 -13 -12   1 8.31860 4.89566   3
  12   1  13 4.59688 5.49087   1
  12  -1 -13 8.61365 4.70851   4
  13 -12  -1 6.49042 5.35194   3
  13  12   1 10.0662 5.11601   4
  13   1  -2 212.458 12.8012   4
   2 -13   1 204.716 14.2299   2
   1   2 -13 204.072 12.7274   4
   1  -2  13 208.427 14.6034   1
  -1  -2 -13 210.320 12.4795   4
 -13  -1  -2 200.099 14.6792   3
 -13   1   2 212.247 15.0047   3
 -13   1   2 204.331 14.2860   2
  -1   2  13 190.166 13.6333   1
  -2 -13  -1 183.182 12.4305   2
  -2 -13  -1 193.983 13.2901   3
  13  -1   2 201.732 12.3603   4
   2  13  -1 201.288 14.4696   1
  -2  13   1 199.852 14.2831   1
  13  -1  -2 197.865 12.0974   4
  -1  -2  13 192.924 12.9707   2
  -2  13  -1 220.239 15.1788   1
 -13   1  -2 202.388 14.6031   3
  13  -1  -2 227.830 15.8296   3
   1   2  13 186.989 14.1597   1
  -2 -13   1 203.524 13.4946   2
 -13  -1   2 186.571 14.1813   3
 -13  -1   2 184.900 13.4246   2
  13   1   2 203.067 12.5455   4
  -1  -2  13 200.501 13.8915   1
   2  13   1 193.109 14.4048   1
   2 -13  -1 210.151 14.1109   2
   2 -13  -1 192.435 13.3265   3
   1  -2 -13 206.109 12.2472   4
  -1   2 -13 194.084 12.4812   4
  13  -3   2 381.081 16.7852   4
   2 -13   3 377.582 19.8778   2
   2  13  -3 357.693 19.6675   1
  -2  13   3 409.749 20.7852   1
  -3  -2 -13 382.803 17.4382   4
  -3   2  13 389.712 18.9982   2
 -13  -3  -2 363.331 19.9437   3
  -2 -13  -3 370.802 19.4882   3
  -3   2  13 378.639 18.7129   1
 -13   3   2 393.559 19.9071   2
   3  -2  13 387.407 20.7565   1
   3   2 -13 364.436 17.8249   4
  13   3  -2 383.674 17.9634   4
 -13   3  -2 390.560 20.4394   3
   3  -2 -13 396.302 17.3321   4
  13  -3  -2 376.918 16.2899   4
   2  13   3 367.542 20.3800   1
  -2 -13   3 375.365 19.2954   2
  -3   2 -13 366.596 17.4869   4
  13   3   2 402.700 18.2419   4
   2 -13  -3 370.287 19.6610   3
  -2  13  -3 401.538 21.0017   1
  -3  -2  13 360.912 18.9354   2
   3   2  13 384.052 21.1519   1
   2 -13  -3 342.610 18.2426   2
  13  -3  -2 399.468 21.4639   3
 -13  -3   2 406.184 21.9478   2
  -3  -2  13 375.823 18.4036   1
 -13  -3   2 360.679 19.8526   3
   2  13  -5 161.090 13.2934   1
   2 -13   5 159.279 13.2449   2
  -2 -13  -5 151.987 13.0024   3
  -5  -2 -13 158.682 11.3897   4
  13  -5   2 158.741 13.3362   3
  13  -5   2 135.661 9.85386   4
  -2  13   5 169.858 13.6790   1
   5   2 -13 153.217 11.5683   4
   5  -2  13 148.918 13.2944   1
  13   5  -2 157.198 11.9251   4
  -2  13   5 171.210 12.7057   2
 -13  -5  -2 167.494 13.7846   3
  -5   2  13 166.725 13.3239   2
 -13   5   2 160.260 13.1667   2
  -5  -2  13 147.405 12.5404   2
   5   2  13 162.762 14.0461   1
   2 -13  -5 165.356 13.6008   3
  13  -5  -2 154.598 13.8097   3
  -2 -13   5 162.163 13.1119   2
   2 -13  -5 146.667 11.8658   2
 -13   5  -2 155.557 13.2269   3
   2  13   5 143.114 13.1408   1
  13   5   2 159.048 11.7335   4
 -13  -5   2 160.187 13.1171   3
  -2  13  -5 159.698 13.4704   1
 -13   5  -2 157.814 12.1903   2
  -5   2 -13 152.483 11.4093   4
   5  -2 -13 155.108 11.1705   4
  -7   2  13 256.526 17.8273   2
  -7  -2 -13 273.805 15.7099   4
  13  -7   2 287.259 18.5053   3
   7  -2  13 282.679 19.3027   1
  -2  13   7 289.891 18.6792   1
   2  13  -7 262.812 17.4986   1
 -13  -7  -2 290.987 18.6190   3
   7   2 -13 245.326 15.2084   4
 -13   7   2 276.052 18.2394   2
  13   7  -2 256.311 15.7335   4
  -2 -13  -7 281.359 18.5721   3
   2 -13   7 279.558 18.1645   2
   7   2  13 290.817 19.7886   1
  13  -7  -2 271.739 18.7408   3
 -13  -7   2 297.576 18.5072   3
 -13   7  -2 291.867 17.8007   2
  -2  13  -7 269.076 18.3279   1
  -7  -2  13 286.215 18.4372   2
  13   7   2 272.722 15.8068   4
  -2 -13   7 284.161 18.2659   2
   7  -2 -13 294.276 15.5146   4
  -7   2 -13 279.112 16.0665   4
   2 -13  -7 254.335 17.8093   3
   2  13   7 286.514 18.9044   1
  -2 -13  -9 208.632 16.5122   3
 -13  -9  -2 228.100 17.5229   3
   9   2 -13 195.486 14.2085   4
  -9   2  13 206.632 17.2840   2
  -2  13   9 191.540 15.6284   1
  13  -9   2 198.491 16.2293   3
  13   9  -2 211.773 14.6575   4
 -13   9   2 200.131 16.1822   2
   2  13  -9 243.559 17.4938   1
   9  -2  13 190.417 16.6297   1
  -9  -2 -13 211.177 14.5670   4
   2 -13   9 178.454 15.4497   2
   9  -2 -13 195.891 13.4916   4
 -13   9  -2 204.600 15.9797   2
  -9  -2  13 215.887 17.2938   2
  13   9   2 193.441 13.7458   4
  -9   2 -13 217.820 14.5436   4
   2 -13  -9 204.038 16.2900   3
   9   2  13 200.235 17.3043   1
  -2  13  -9 196.073 16.6190   1
  -2 -13   9 199.666 16.1814   2
   2  13   9 212.895 16.9539   1
  13  -9  -2 204.029 16.9871   3
 -13  -9   2 209.576 15.9925   3
  -2 -13 -11 198.432 16.8581   3
  11  -2  13 187.828 16.9328   1
 -13  11   2 222.526 18.1428   2
  13  11  -2 214.443 15.3465   4
 -13 -11  -2 222.166 18.1454   3
  -2  13  11 219.135 17.6146   1
  11   2 -13 223.505 15.8602   4
   2 -13  11 206.746 17.2884   2
 -11  -2 -13 209.109 15.2873   4
 -11   2  13 219.074 18.9289   2
   2  13 -11 204.266 16.9833   1
 -11  -2  13 213.265 18.0262   2
 -13 -11   2 215.014 20.8345   3
  -2  13 -11 222.870 18.4148   1
  13  11   2 211.406 14.4405   4
  13 -11  -2 201.254 17.3981   3
  11   2  13 203.642 17.8707   1
 -13  11  -2 230.731 18.0925   2
   2 -13 -11 187.141 16.5518   3
  -2 -13  11 229.178 18.4958   2
 -11   2 -13 227.815 15.8016   4
   2  13  11 219.314 18.3747   1
  13   0  -3 3.94751 3.00579   4
   0  -3  13 4.03118 3.10229   1
 -13   0   3 3.18669 2.64890   3
  13   0   3 0.88467 2.00493   4
  -3 -13   0 -0.0103 1.80627   3
  -3  13   0 -1.1909 1.79773   1
   3  13   0 -0.4055 2.26850   1
   3 -13   0 1.19561 2.09558   3
 -13   0  -3 6.69337 3.82350   3
   0  -3  13 0.27294 2.04733   2
  -3 -13   0 0.80746 1.80760   2
 -13   0   3 1.29643 2.25741   2
   0   3  13 -1.5036 1.88985   1
   3 -13   0 4.62904 3.24553   2
   0  -3 -13 1.89199 1.96474   4
  13   0  -3 1.49897 2.79830   3
   0   3 -13 1.89819 2.09350   4
 -13   2   3 395.962 20.6652   2
   2   3 -13 383.824 18.0750   4
  -3 -13  -2 386.042 19.6532   3
   3  13  -2 402.135 20.7527   1
 -13  -2  -3 369.420 20.0150   3
  -3  13   2 375.445 19.9877   1
   2  -3  13 410.806 21.2759   1
  -2  -3 -13 378.840 16.9338   4
  13  -2   3 372.483 17.0151   4
  13   2  -3 370.516 17.6725   4
  -2   3  13 372.808 19.2242   1
   3 -13   2 374.746 19.8360   2
  -2   3 -13 364.281 17.5112   4
   3 -13  -2 365.380 19.2819   2
  -2  -3  13 391.848 19.4993   2
  -3 -13   2 357.052 18.4465   2
  -3  13  -2 384.580 20.6489   1
  13   2   3 384.832 17.9453   4
  -2  -3  13 401.487 19.5209   1
   3  13   2 353.729 19.8549   1
 -13  -2   3 412.985 21.0671   3
  13  -2  -3 379.236 20.8766   3
   2   3  13 349.792 20.0340   1
  13  -2  -3 387.019 16.9249   4
   3 -13  -2 371.536 19.4965   3
   2  -3 -13 414.467 17.3653   4
 -13  -2   3 385.238 19.3784   2
 -13   2  -3 364.042 19.7600   3
  -4   3  13 24.6434 6.34561   2
  13  -4   3 19.5435 4.90695   4
   4  -3  13 4.07318 3.34536   1
   4   3 -13 9.11930 3.85702   4
  13   4  -3 5.08058 3.17290   4
 -13   4   3 5.32538 3.70891   2
  -4  -3 -13 7.58249 3.03486   4
   3  13  -4 8.34102 3.56342   1
  -3  13   4 6.50062 3.86762   2
  -3 -13  -4 4.47589 3.43123   3
 -13  -4  -3 7.70812 3.73261   3
  -3  13   4 11.6372 4.67019   1
   3 -13   4 6.28942 3.60305   2
   3  13   4 15.8984 5.76580   1
  -4   3 -13 10.6956 3.81907   4
 -13   4  -3 6.35225 4.13450   3
   4  -3 -13 13.2595 4.30127   4
 -13  -4   3 7.25991 3.42660   2
   4   3  13 6.56215 3.76890   1
   3 -13  -4 9.60366 4.26390   3
   3 -13  -4 10.1384 4.21797   2
  -4  -3  13 6.22470 3.37900   2
  13  -4  -3 10.4584 4.36677   3
 -13  -4   3 4.49245 2.95809   3
  -3 -13   4 16.7861 5.26861   2
  -3  13  -4 4.73386 3.03646   1
  13   4   3 11.3488 4.03155   4
 -13   6   3 172.173 14.2312   2
  13  -6   3 163.688 13.6912   3
   3 -13   6 179.210 14.4040   2
  -3  13   6 145.713 13.0585   1
   3  13  -6 173.640 13.9469   1
 -13  -6  -3 173.362 14.3839   3
  13   6  -3 189.322 13.4691   4
  -6  -3 -13 171.254 11.9192   4
   6   3 -13 171.063 12.5740   4
  -6   3  13 169.608 13.9128   2
  -3 -13  -6 176.956 14.3031   3
  -3  13   6 151.859 12.2843   2
   6  -3  13 175.958 14.8631   1
  -3  13  -6 170.681 14.3788   1
  -3 -13   6 180.695 14.3053   2
  -6  -3  13 189.037 14.6219   2
   3  13   6 163.522 14.4950   1
 -13  -6   3 195.337 14.4770   3
  -6   3 -13 149.963 11.5682   4
  13  -6  -3 186.047 15.3675   3
 -13   6  -3 178.313 13.9452   3
   6  -3 -13 201.052 12.5263   4
  13   6   3 180.037 12.5599   4
   3 -13  -6 183.016 14.7428   3
   6   3  13 158.765 14.6301   1
 -13   6  -3 188.365 13.7301   2
   3 -13   8 5.96909 4.35046   2
  -8   3  13 10.7122 5.38473   2
 -13   8   3 6.15341 3.85089   2
  13  -8   3 7.27440 4.40925   3
   8  -3  13 19.3529 6.73093   1
  -8  -3 -13 10.5975 4.08920   4
  -3  13   8 9.57971 4.36607   1
  -3 -13  -8 9.63023 4.96752   3
 -13  -8  -3 16.0267 6.20153   3
  13   8  -3 12.7669 4.88283   4
   3  13  -8 8.31621 4.05253   1
   8   3 -13 9.93532 4.20068   4
 -13   8  -3 8.90305 4.24305   2
  -8  -3  13 13.0453 5.53929   2
   8   3  13 9.46027 5.09696   1
  13   8   3 14.8615 4.97293   4
 -13  -8   3 11.2228 4.44129   3
   3  13   8 11.9427 5.11655   1
  -3  13  -8 15.5458 5.97439   1
   3 -13  -8 15.2821 5.83293   3
  -3 -13   8 13.2688 4.97183   2
  -8   3 -13 8.47616 3.56703   4
  13  -8  -3 6.46739 4.87168   3
 -13 -10  -3 181.646 16.1008   3
  10  -3  13 147.604 14.8848   1
   3 -13  10 167.588 15.1152   2
  10   3 -13 160.502 13.4459   4
  -3 -13 -10 167.479 15.1533   3
  13  10  -3 186.711 14.3768   4
 -13  10   3 185.946 16.1959   2
 -10  -3 -13 146.880 12.5346   4
 -10   3  13 170.799 16.3958   2
  -3  13  10 172.277 14.7577   1
   3  13 -10 190.819 15.8931   1
 -10   3 -13 167.286 13.1420   4
   3  13  10 195.135 17.1639   1
 -13  10  -3 185.186 15.4047   2
  -3  13 -10 163.561 15.6997   1
  -3 -13  10 166.982 15.2461   2
   3 -13 -10 165.501 15.3492   3
  13 -10  -3 186.805 16.7010   3
 -10  -3  13 173.679 15.9306   2
  10   3  13 187.353 17.0357   1
  13  10   3 169.631 12.8585   4
  13  12  -3 7.57102 4.57335   4
  -3  13  12 6.58955 4.54774   1
  12   3  13 6.07834 7.86333   1
 -13   1   4 2.33166 2.62981   3
   1  -4  13 0.31708 1.96939   2
  -1   4  13 1.96054 2.50190   1
   1   4 -13 5.65645 3.14291   4
   4 -13   1 7.69988 4.31463   2
 -13   1   4 7.83758 4.06974   2
  13   1  -4 0.71130 1.90798   4
   1  -4  13 3.05657 3.11034   1
  -4 -13  -1 2.68330 2.43201   3
  13  -1   4 3.04217 2.43798   4
  -1  -4 -13 7.27862 3.03102   4
   4  13  -1 3.13438 2.67988   1
  -4  13   1 4.20481 2.67562   1
 -13  -1  -4 4.04845 2.89355   3
 -13  -1   4 7.43463 3.64190   3
 -13   1  -4 4.42477 3.05123   3
   1  -4 -13 6.00920 3.07295   4
  -1   4 -13 3.40885 2.13788   4
  -4 -13   1 3.32107 2.80475   3
  -4  13  -1 2.45982 2.56088   1
 -13  -1   4 3.67269 2.94581   2
   4 -13  -1 11.1917 4.55620   2
  13   1   4 3.49654 2.72992   4
  -1  -4  13 3.34186 3.05113   1
   4 -13  -1 1.77278 2.36345   3
  -1  -4  13 5.40869 2.89391   2
   4  13   1 0.84225 2.69030   1
  -4 -13   1 4.91284 2.80035   2
  13  -1  -4 1.79542 2.23240   4
   1   4  13 6.79246 4.13048   1
  13  -1  -4 0.97710 2.04600   3
  -4  13   3 14.4940 5.14628   2
  -3   4  13 9.26541 3.91839   1
   4  13  -3 13.0799 4.66884   1
  -4  13   3 9.30712 4.26624   1
 -13   3   4 6.43204 3.90260   2
  -4 -13  -3 4.83323 2.85998   3
  13  -3   4 8.67366 3.58501   4
 -13  -3  -4 17.9858 5.70135   3
  13   3  -4 5.57488 3.05050   4
   4 -13   3 9.92836 4.37804   2
   3   4 -13 9.67305 3.89193   4
   3  -4  13 8.15455 4.13449   1
  -3  -4 -13 9.37652 3.44682   4
 -13   3  -4 10.0701 4.52059   3
  -3  -4  13 9.61463 4.06915   2
  -3  -4  13 7.37088 3.29498   1
   4 -13  -3 5.83508 2.93982   3
 -13  -3   4 6.17858 3.45661   2
  -4 -13   3 10.2579 3.83984   2
   3   4  13 5.32274 3.34702   1
   4 -13  -3 13.4803 5.00937   2
   4  13   3 12.2363 4.91468   1
 -13  -3   4 5.38184 3.43892   3
  13  -3  -4 5.48558 2.97930   4
  -4  13  -3 11.5067 4.65234   1
   3  -4 -13 2.77621 2.46919   4
  -3   4 -13 15.6107 4.72191   4
  13  -3  -4 19.7893 6.35176   3
  13   3   4 8.25725 3.39212   4
 -13  -5  -4 3.63630 3.01153   3
  -5   4  13 3.66472 3.41542   2
   5   4 -13 4.65621 3.04960   4
  13   5  -4 5.06585 3.15705   4
  -4  13   5 3.16284 2.90405   2
   4 -13   5 3.37141 3.15370   2
   4  13  -5 5.34925 3.17256   1
 -13   5   4 -2.7462 2.04252   2
  13  -5   4 3.64058 2.39782   4
  -5  -4 -13 9.62428 3.56682   4
   5  -4  13 2.72467 3.02362   1
  -4 -13  -5 3.56593 3.13319   3
  -4  13   5 4.88318 3.23495   1
  -4  13  -5 26.1825 7.60634   1
  -4 -13   5 3.91161 2.91742   2
  13   5   4 5.37615 3.17133   4
 -13  -5   4 3.28600 3.12714   3
 -13   5  -4 8.02827 3.98272   3
   4  13   5 4.28749 3.28310   1
 -13  -5   4 4.81615 3.47533   2
   4 -13  -5 8.61400 4.10578   3
   5   4  13 2.69479 2.72010   1
  -5   4 -13 4.45185 2.40677   4
  13  -5  -4 7.76729 4.05803   3
  -5  -4  13 -0.2311 2.13571   2
   7  -4  13 9.60930 4.97472   1
   7   4 -13 5.78475 3.91346   4
  -4 -13  -7 5.43163 3.96841   3
  -7   4  13 9.64882 5.15943   2
  13  -7   4 16.4480 5.82018   3
   4 -13   7 6.73758 4.44592   2
 -13   7   4 11.5643 5.21202   2
 -13  -7  -4 18.8242 6.60232   3
   4  13  -7 7.89709 4.03326   1
  -7  -4 -13 20.2317 5.25164   4
  -4  13   7 9.23259 4.55087   1
  -4  13   7 8.10874 3.98965   2
  13   7  -4 4.05018 3.40882   4
  -7  -4  13 2.71402 3.62560   2
  -4  13  -7 8.70773 4.00282   1
   4 -13  -7 3.50567 3.02996   3
  13  -7  -4 3.87507 3.81875   3
 -13   7  -4 9.82073 4.43478   3
  -7   4 -13 7.67911 3.51195   4
 -13  -7   4 6.44274 3.70137   3
  -4 -13   7 8.09573 4.04870   2
   7   4  13 8.98109 5.15495   1
  13   7   4 13.5853 4.91326   4
   4  13   7 9.41795 5.29383   1
 -13   9   4 6.93787 3.86025   2
  -4 -13  -9 1.54463 2.61924   3
   4 -13   9 3.00682 3.21376   2
   9  -4  13 1.62078 3.64490   1
   9   4 -13 7.08626 3.90929   4
 -13  -9  -4 9.16446 5.38151   3
  -9  -4 -13 6.06004 3.37517   4
  13   9  -4 4.32293 3.31269   4
  -4  13   9 9.26195 4.30789   1
   4  13  -9 5.44507 3.57869   1
  -9   4  13 7.13460 5.37191   2
  -9   4 -13 9.18327 3.91029   4
  -4 -13   9 10.0245 4.57154   2
   9   4  13 4.69760 4.43834   1
  13   9   4 4.57951 2.89675   4
  -4  13  -9 5.50889 4.12325   1
  13  -9  -4 2.63655 3.78851   3
 -13   9  -4 3.78810 3.56207   2
   4  13   9 7.47986 4.42785   1
   4 -13  -9 3.83178 2.83973   3
  -9  -4  13 10.4910 4.80182   2
   4 -13  11 5.46222 4.28309   2
  13  11  -4 14.4107 5.38109   4
 -11   4  13 8.11975 6.86279   2
 -13 -11  -4 15.0382 10.0984   3
  11  -4  13 11.8654 5.45088   1
 -11  -4 -13 8.04643 4.62707   4
 -13  11  -4 11.2525 5.22452   2
  13  11   4 15.1637 5.20955   4
  13 -11  -4 7.87295 5.66850   3
  11   4  13 6.25429 5.29846   1
 -11   4 -13 5.23758 3.40548   4
   5  13   0 -0.4710 2.03844   1
 -13   0   5 0.99601 2.37290   3
  -5 -13   0 2.36936 2.55108   3
  13   0  -5 1.36671 2.26720   3
   0  -5 -13 0.81035 2.00384   3
   0   5  13 2.84259 3.46476   1
   5 -13   0 0.91818 1.87079   3
   0  -5  13 1.02898 2.72028   1
 -13   0   5 16.4467 5.75848   2
   0  -5 -13 0.92383 1.63160   4
  13   0   5 0.79708 2.16756   4
  -5  13   0 -2.4191 1.72920   1
   0   5 -13 1.50241 1.98410   4
 -13   0  -5 17.0264 5.37836   3
   5 -13   0 -0.0729 2.18553   2
  13   0  -5 1.17411 1.96417   4
   0  -5  13 0.92750 1.95940   2
  -5 -13  -2 159.065 12.8299   3
 -13   2   5 149.894 13.4768   2
  -5  13   2 170.397 13.4933   1
   2   5 -13 139.113 11.3101   4
   2  -5  13 149.370 11.6865   2
   5  13  -2 162.236 13.2378   1
  13  -2   5 160.360 11.4069   4
  13   2  -5 167.241 12.1376   4
  -2  -5 -13 168.253 10.9234   4
 -13  -2  -5 173.230 13.6757   3
  -5  13   2 155.585 12.9989   2
  -2   5  13 159.763 13.1200   1
   5 -13   2 139.661 12.5761   2
   2  -5  13 168.369 13.9350   1
  -2  -5 -13 157.072 11.7457   3
  13  -2  -5 157.497 13.7264   3
  -2   5 -13 163.315 11.8108   4
  13  -2  -5 167.396 11.3530   4
 -13   2  -5 151.073 12.6942   3
  -2  -5  13 154.969 12.7036   2
  13   2   5 165.771 11.8594   4
 -13  -2   5 172.237 13.7273   2
 -13  -2   5 142.087 12.3183   3
  -5  13  -2 168.446 13.7112   1
  -5 -13   2 155.813 11.9336   2
   5 -13  -2 149.838 12.9456   2
   2   5  13 156.517 13.8189   1
  -2  -5  13 154.604 12.2982   1
   5 -13  -2 164.015 13.1796   3
   5  13   2 151.420 13.3650   1
   2  -5 -13 162.120 12.0506   3
   5 -13   4 4.33727 3.50517   2
   4  -5  13 5.08356 3.66342   1
  -4  -5 -13 3.54150 2.40979   3
  13  -4   5 5.24574 2.73650   4
  -4  -5 -13 15.2998 4.36908   4
  -5 -13  -4 2.30718 2.48512   3
   5  13  -4 10.4342 4.32933   1
  -5  13   4 2.94677 2.96050   1
  -5  13   4 4.16371 3.07664   2
  13   4  -5 7.97976 3.95802   4
 -13   4   5 1.21005 2.74988   2
   4   5 -13 7.83577 4.00447   4
 -13  -4  -5 4.98113 3.34789   3
  -4   5  13 4.68853 4.02387   2
   4  -5 -13 3.98418 3.04131   3
  13  -4  -5 9.19813 4.67588   3
  13   4   5 0.46188 2.30469   4
  -5 -13   4 3.45907 2.43335   2
   5 -13  -4 11.4058 4.32676   3
  -5  13  -4 2.36646 2.70880   1
 -13  -4   5 5.53132 3.40959   3
 -13  -4   5 2.28822 3.31189   2
  -4   5 -13 8.62743 3.51009   4
  -4  -5  13 0.08031 1.59257   2
   5  13   4 9.72063 4.80519   1
   4   5  13 4.88747 3.56273   1
 -13   4  -5 5.18014 3.58258   3
  -5  13   6 247.353 16.6739   1
  -5  13   6 232.032 16.0793   2
 -13  -6  -5 208.880 16.4143   3
  -6  -5 -13 262.262 25.0449   3
   5  13  -6 213.799 15.4002   1
  -6   5  13 233.002 16.9753   2
 -13   6   5 232.811 17.0847   2
  13   6  -5 231.286 15.4160   4
   6  -5  13 242.766 17.9283   1
  -5 -13  -6 235.887 17.1224   3
  -6  -5 -13 219.856 13.5693   4
   5 -13   6 233.766 16.8978   2
   6   5 -13 231.603 15.2392   4
  -5  13  -6 255.726 17.6363   1
 -13  -6   5 241.328 16.1354   3
 -13  -6   5 226.079 15.6253   2
  -5 -13   6 237.064 16.6989   2
   5  13   6 229.885 17.5156   1
  -6  -5  13 235.758 16.8992   2
   6   5  13 257.203 18.6666   1
   6  -5 -13 219.572 15.3159   3
   5 -13  -6 248.215 17.6604   3
  -6   5 -13 224.349 14.4250   4
 -13   6  -5 254.408 16.5619   3
  13   6   5 215.744 14.1206   4
  13  -6  -5 224.574 17.1328   3
  -8   5  13 4.16128 4.28885   2
   8   5 -13 0.91391 2.71679   4
  -5  13   8 4.40673 3.51285   2
  13   8  -5 11.2597 5.20027   4
 -13   8   5 1.33258 2.59015   2
 -13  -8  -5 8.45166 4.51018   3
  -8  -5 -13 5.79700 2.99318   4
  -5 -13  -8 1.13790 3.74962   3
  -5  13   8 4.25857 3.62534   1
   8  -5  13 1.28995 2.99682   1
   5 -13   8 1.01151 3.02071   2
   5  13   8 6.40422 4.79552   1
  -5 -13   8 3.78295 3.28789   2
   8  -5 -13 2.92084 3.74315   3
  13   8   5 0.08190 2.14646   4
  -8  -5  13 -0.6555 2.87878   2
   5 -13  -8 2.78248 3.25784   3
  -5  13  -8 5.74517 3.17304   1
   8   5  13 6.75435 4.73896   1
  -8   5 -13 -1.9624 1.94692   4
  13  -8  -5 10.3293 5.57385   3
  -5 -13 -10 159.543 15.2106   3
 -10   5  13 162.271 16.5374   2
   5 -13  10 192.282 16.3606   2
  13  10  -5 175.294 14.3569   4
 -10  -5 -13 157.713 13.0452   4
 -13  10   5 179.920 16.2913   2
  10  -5  13 207.165 17.7271   1
  10   5 -13 173.932 14.4442   4
 -13 -10  -5 170.385 16.2882   3
  13 -10  -5 160.424 16.0145   3
 -13  10  -5 170.291 17.3454   2
  10   5  13 204.350 18.0091   1
  13  10   5 156.859 12.5838   4
  -5  13 -10 176.327 16.2889   1
 -10  -5  13 178.863 16.3758   2
  -5 -13  10 177.569 15.9438   2
   5 -13 -10 169.109 15.8697   3
 -10   5 -13 176.535 13.7068   4
   5  13  10 179.902 16.8789   1
  13  -1   6 218.781 13.8923   4
  -1   6  13 212.944 15.5740   1
  -6  13   1 214.093 15.5562   2
   1  -6  13 218.471 15.9292   1
 -13   1   6 242.891 17.4459   2
  -6 -13  -1 206.709 14.6271   3
  13   1  -6 225.835 16.1956   3
   6 -13   1 238.812 16.5625   2
   6  13  -1 228.468 15.7805   1
  13   1  -6 209.917 13.7647   4
  -1  -6 -13 217.996 14.4432   3
   1   6 -13 238.393 14.6488   4
   1  -6  13 234.544 15.2243   2
  -6  13   1 201.579 14.5831   1
 -13  -1  -6 203.671 14.9015   3
  13   1   6 214.665 13.8918   4
  -1  -6  13 219.507 15.2113   1
   6 -13  -1 267.669 16.7667   3
  -6 -13   1 224.951 16.6272   3
   6  13   1 216.927 15.7411   1
   6 -13  -1 232.217 16.3716   2
  -1  -6  13 225.682 15.3449   2
   1  -6 -13 228.873 14.8628   3
  13  -1  -6 210.255 15.8309   3
   1   6  13 216.207 16.2669   1
  13  -1  -6 211.127 13.2957   4
 -13  -1   6 228.044 16.4312   2
 -13  -1   6 203.753 14.9972   3
  -6  13  -1 217.450 15.5463   1
 -13   1  -6 216.827 15.0746   3
  -1   6 -13 214.375 13.8322   4
  13  -3   6 165.431 11.9581   4
  -6  13   3 183.826 14.5292   2
  -6  13   3 167.697 13.3647   1
  -3   6  13 166.322 13.4334   1
  13   3  -6 163.523 12.5508   4
 -13   3   6 187.147 15.5916   2
   3   6 -13 200.918 13.7696   4
   6 -13   3 173.457 14.1939   2
   6  13  -3 167.722 13.5423   1
  -3  -6 -13 174.606 13.0277   3
 -13  -3  -6 175.974 14.1258   3
  -6 -13  -3 163.354 13.7199   3
   3   6 -13 187.755 16.4535   1
   3  -6  13 160.824 14.1170   1
  -3  -6 -13 179.389 11.5009   4
 -13  -3   6 178.551 14.2476   2
   3   6  13 188.432 16.0602   1
  -3  -6  13 188.155 14.5825   2
  -3   6 -13 184.430 12.8456   4
   6 -13  -3 177.983 14.1237   3
   6  13   3 199.618 15.6088   1
  13  -3  -6 177.118 14.7051   3
  13  -3  -6 187.642 12.1607   4
  13   3   6 170.605 12.5329   4
   6 -13  -3 185.771 14.7023   2
   3  -6 -13 182.649 13.5572   3
  -6  13  -3 174.329 14.2135   1
  -6 -13   3 173.427 13.1612   2
 -13   3  -6 185.970 13.8585   3
 -13  -3   6 197.071 14.6120   3
 -13   5   6 223.667 17.2540   2
  -5  -6 -13 236.432 13.7561   4
   5  -6  13 242.163 17.6967   1
   5   6 -13 224.964 15.0262   4
  13  -5   6 221.478 13.6299   4
  13   5  -6 213.311 14.9130   4
 -13  -5  -6 225.533 16.7872   3
  -6 -13  -5 220.477 16.5137   3
  -5  -6 -13 225.301 15.3361   3
  -6  13   5 238.456 16.0741   1
  -6  13   5 238.878 16.7152   2
   6 -13   5 236.086 16.9683   2
   6  13  -5 223.546 15.4663   1
  -5   6  13 238.883 16.8187   2
   5  -6 -13 238.925 15.8015   3
 -13   5  -6 235.383 16.6258   3
   5   6  13 240.062 18.1366   1
  13  -5  -6 240.348 17.5497   3
 -13  -5   6 243.355 16.5905   2
 -13  -5   6 227.177 15.7435   3
  -5  -6  13 250.416 17.5077   2
   6  13   5 245.652 17.7076   1
  13   5   6 232.147 14.8170   4
  -6 -13   5 227.575 16.0443   2
   6 -13  -5 227.923 17.0217   3
  -6  13  -5 234.257 16.9463   1
  -5   6 -13 218.705 14.1716   4
 -13   5  -6 241.056 14.2788   4
  -6  13   7 207.043 15.8803   2
   7   6 -13 233.721 15.4922   4
  -7  -6 -13 227.688 14.2544   4
 -13  -7  -6 225.284 17.4985   3
  13   7  -6 242.855 16.3687   4
   7  -6  13 215.225 17.5871   1
  -7  -6 -13 245.070 16.6565   3
  -7   6  13 232.298 17.7725   2
  -6  13   7 226.485 22.0322   1
  -6 -13  -7 234.539 17.8983   3
   6 -13   7 259.379 18.2487   2
 -13   7   6 241.823 18.1083   2
  -6  13  -7 213.972 16.5771   1
  13   7   6 221.411 14.7361   4
   7   6  13 205.034 17.6012   1
 -13  -7   6 235.557 16.6780   2
  13  -7  -6 217.906 17.1908   3
  -7   6 -13 224.482 14.7749   4
   6  13   7 208.211 17.3948   1
  -6 -13   7 216.865 16.3903   2
   6 -13  -7 233.221 18.0501   3
   7  -6 -13 224.310 16.2883   3
  -7  -6  13 227.002 17.3467   2
  -6  13   9 218.045 16.7209   2
  -9  -6 -13 229.664 15.2126   4
   6 -13   9 213.647 17.1571   2
  13   9  -6 223.779 16.1145   4
  -9  -6 -13 228.169 16.8474   3
  -9   6  13 225.610 18.8642   2
   9  -6  13 216.547 18.0469   1
   9   6 -13 237.538 16.4467   4
  -6 -13  -9 208.155 17.2532   3
 -13  -9  -6 230.170 18.3734   3
 -13   9   6 204.060 17.3116   2
   9  -6 -13 197.977 15.8012   3
  -9  -6  13 217.555 17.6030   2
   6  13   9 228.330 18.8518   1
  -9   6 -13 204.504 14.5177   4
  -6  13  -9 203.311 17.5330   1
  13  -9  -6 196.523 17.3873   3
   6 -13  -9 205.498 17.4565   3
  13   9   6 212.090 14.6232   4
  -6 -13   9 212.914 17.3531   2
   9   6  13 217.779 18.3269   1
  11  -6 -13 128.006 13.4090   3
 -13   0  -7 4.44501 3.00258   3
 -13   0   7 1.48363 2.73106   3
 -13   0   7 0.91409 2.93412   2
   7  13   0 2.67556 3.19547   1
  13   0  -7 -0.0051 2.59437   3
   7 -13   0 -0.4208 2.29250   2
   0  -7  13 -2.1546 1.89902   1
   0   7 -13 2.15851 2.58469   4
   0   7  13 2.58698 3.13371   1
   0  -7  13 1.93125 2.58385   2
  13   0   7 1.81443 2.13509   4
  -7 -13   0 13.8737 4.67854   3
  -7  13   0 -3.2028 1.84689   1
   0  -7 -13 1.74398 2.59405   3
   7 -13   0 -0.4431 2.11755   3
  13   0  -7 1.48453 2.39825   4
  13   2  -7 291.087 16.6834   4
  13  -2   7 288.270 16.1376   4
 -13   2   7 277.319 19.4603   2
   2   7 -13 284.396 17.6088   1
  -7  13   2 288.212 17.4428   1
   2   7 -13 258.235 15.7785   4
  -7 -13  -2 276.865 17.8226   3
  -2  -7 -13 297.974 17.5665   3
   2  -7  13 280.613 18.4851   1
   2  -7  13 289.289 17.3035   2
   7  13  -2 256.910 16.9367   1
   7 -13   2 264.601 18.2194   2
  -2   7  13 271.936 17.5838   1
  -7  13   2 289.265 18.7476   2
 -13  -2  -7 277.145 17.7609   3
   2  -7 -13 279.662 17.1061   3
  -2   7 -13 274.564 16.0130   4
 -13  -2   7 291.402 17.8173   3
   7  13   2 272.342 18.3278   1
 -13   2  -7 275.362 16.9916   3
   2   7  13 304.580 19.7844   1
  -7  13  -2 273.183 17.6442   1
  13  -2  -7 273.326 18.4627   3
   7 -13  -2 267.195 17.8516   3
  -2  -7  13 255.249 17.1943   2
 -13  -2   7 284.270 18.7169   2
   7 -13  -2 284.517 18.4784   2
  13   2   7 289.655 16.7065   4
  -2  -7  13 299.694 17.7631   1
  13  -2  -7 256.902 14.8369   4
  13  -4   7 5.25168 3.01313   4
  -7  13   4 11.2419 4.67536   1
   4   7 -13 7.63223 4.15298   4
  13   4  -7 10.8804 4.62638   4
   4  -7  13 8.53693 4.63980   1
 -13   4   7 12.2402 5.37364   2
 -13  -4  -7 11.6772 5.08201   3
  -4  -7 -13 5.53306 3.16811   3
  -7  13   4 9.28507 4.88776   2
   7 -13   4 4.70702 4.03671   2
  -7 -13  -4 7.00467 3.61495   3
 -13   4  -7 5.59693 3.43493   4
   4  -7 -13 7.87317 3.92290   3
  13   4   7 7.16269 3.51415   4
  -4  -7  13 8.15388 4.68252   2
  -7 -13   4 7.09038 3.82226   2
  -7  13  -4 10.6928 4.43895   1
 -13  -4   7 6.98054 4.08011   2
  13  -4  -7 10.7954 4.74841   3
   7  13   4 9.96773 4.76936   1
  -4   7 -13 11.2579 4.49445   4
   4   7  13 12.0206 5.06537   1
   7 -13  -4 5.03993 3.65813   3
 -13  -4   7 5.87572 3.38335   3
  13   6  -7 231.210 15.8558   4
 -13   6   7 217.265 17.5312   2
   6   7 -13 240.571 15.6253   4
  -7 -13  -6 256.765 18.6307   3
  -6  -7 -13 236.920 16.3598   3
  -6  -7 -13 223.681 13.6767   4
   7 -13   6 243.617 17.6051   2
   6  -7  13 231.540 18.2356   1
  -6   7  13 221.018 17.0422   2
  -7  13   6 235.852 17.3462   2
 -13  -6  -7 262.339 18.7478   3
   7  13   6 228.325 18.0293   1
  -6  -7  13 223.379 17.3810   2
   7 -13  -6 206.731 17.1141   3
   6  -7 -13 230.558 16.5121   3
  -6   7 -13 214.298 14.3155   4
  13   6   7 228.642 15.0647   4
 -13  -6   7 222.382 16.5371   2
 -13   6  -7 228.353 14.2381   4
  -7 -13   6 208.888 15.9173   2
   6   7  13 243.628 19.2743   1
  13  -6  -7 209.862 16.8995   3
  -7  13  -6 219.200 16.6744   1
  -8  -7 -13 4.58749 3.23987   3
  -7  13   8 12.7330 5.38012   2
   7 -13   8 7.85486 4.86632   2
   8  -7  13 9.30401 4.51190   1
  -8  -7 -13 7.20766 3.95517   4
  -7 -13  -8 10.8052 5.13342   3
 -13   8   7 6.51240 3.90976   2
   8   7 -13 6.87519 3.46283   4
  -8   7  13 6.67428 5.11020   2
 -13  -8  -7 7.02272 4.82829   3
  13   8  -7 6.57451 4.48779   4
  -7 -13   8 5.15816 3.77969   2
  -8  -7  13 6.35061 4.14725   2
  13  -8  -7 13.0157 5.48136   3
  13   8   7 8.72690 3.94801   4
   8  -7 -13 6.11630 4.09981   3
   7  13   8 11.5380 6.07678   1
   8   7  13 13.8752 5.82842   1
  -8   7 -13 5.45836 3.41113   4
   7 -13  -8 7.36758 4.64499   3
  -7  13  -8 1.01881 2.62893   1
 -13  -8   7 6.66292 3.74610   2
 -10  -7 -13 132.678 13.5964   3
 -10  -7 -13 117.932 11.4616   4
   7 -13  10 117.393 16.3434   2
  -7  13  10 134.731 13.7913   2
 -10   7 -13 131.217 12.1004   4
  13  10   7 139.419 12.2714   4
  10  -7 -13 139.420 13.9744   3
   8 -13   1 0.47866 2.71349   2
  -8 -13  -1 4.81085 3.39005   3
   1  -8  13 0.47544 2.32611   1
   1  -8  13 11.6823 4.58973   2
  -8  13   1 1.49044 2.70241   1
  -8  13   1 5.87755 4.30848   2
  -1  -8 -13 2.22466 2.61055   3
 -13   1   8 5.95737 4.34776   2
   1   8 -13 5.66102 3.48363   4
  13   1  -8 5.85019 3.21407   4
 -13  -1  -8 2.82760 2.97843   3
  -1   8  13 0.33113 2.89092   1
  13  -1   8 2.36752 2.92254   4
  13   1  -8 2.73668 3.13860   3
   1   8 -13 12.9744 5.42577   1
  -8  13  -1 4.56922 3.62437   2
  13   1   8 5.47608 3.12373   4
   1   8  13 0.97741 2.63921   1
   8 -13  -1 0.11803 3.37805   2
  -1   8 -13 -1.8338 1.71926   4
  13  -1  -8 2.44608 3.03218   3
  -1   8 -13 1.00968 2.60855   1
  -1  -8  13 7.50010 4.04178   1
   8 -13  -1 6.27664 3.81257   3
   1  -8 -13 1.87813 2.33397   3
   8  13   1 1.49722 3.03171   1
  -1  -8  13 3.24122 2.73849   2
  13  -1  -8 0.79196 1.97466   4
 -13   1  -8 0.82757 2.15830   4
 -13  -1   8 4.78383 4.50015   2
 -13  -1   8 3.46045 3.33824   3
 -13   1  -8 5.70728 3.29998   3
  -8  13  -1 4.73284 3.68471   1
  13  -3   8 13.3529 4.84249   4
   3   8 -13 9.05326 4.16222   4
 -13  -3  -8 11.8568 5.17225   3
  -3   8  13 11.6740 5.06758   1
  -8  13   3 17.2371 6.36004   2
  -3  -8 -13 7.22444 3.92869   3
   3  -8  13 17.4577 5.54328   2
   3  -8  13 17.8869 6.37493   1
  13   3  -8 5.05780 3.48499   4
   8 -13   3 15.9237 5.99849   2
  -8 -13  -3 9.48951 4.72334   3
 -13   3   8 12.9087 6.07208   2
  13   3   8 7.03408 4.00961   4
   8 -13  -3 6.48611 3.83546   3
  -3   8 -13 36.7018 7.42877   4
  -8  13  -3 10.7614 4.51345   1
  -3   8 -13 5.32150 4.41847   1
   3  -8 -13 12.3924 4.76344   3
  13  -3  -8 20.6198 6.38702   3
   8  13   3 8.90434 4.50193   1
  -3  -8  13 8.87267 4.48969   2
 -13   3  -8 9.95031 4.16623   4
   3   8  13 8.52200 4.30317   1
 -13  -3   8 14.0793 5.42536   2
  -5  -8 -13 3.09433 3.12419   3
   5  -8  13 -0.7023 1.87133   1
  -8  13   5 4.40293 4.00403   2
  -8 -13  -5 -1.5121 2.76737   3
 -13  -5  -8 5.15617 3.87572   3
   8 -13   5 1.06660 2.79889   2
   5   8 -13 2.84618 2.46879   4
  13   5  -8 -0.4637 2.90634   4
 -13   5   8 8.31823 4.80451   2
  -8 -13   5 3.41351 2.99069   2
   5  -8 -13 12.2279 5.17023   3
  -5   8 -13 1.25354 2.50352   4
  13  -5  -8 2.37190 2.89870   3
   8  13   5 2.42575 3.49721   1
   8 -13  -5 0.98281 3.11807   3
  13   5   8 1.83283 3.02447   4
  -8  13  -5 1.67068 2.56790   1
 -13   5  -8 1.94893 2.47699   4
   5   8  13 0.14581 2.67044   1
  -5  -8  13 1.87144 2.72232   2
 -13  -5   8 10.1502 4.82821   2
   8 -13   7 4.82053 4.28237   2
  -8  13   7 12.5697 4.93029   2
  -8 -13  -7 8.94015 5.24997   3
  -7  -8 -13 9.21895 4.52283   3
   7   8 -13 6.60521 3.91954   4
 -13  -7  -8 12.5682 5.65416   3
  -7   8  13 4.60343 4.46808   2
  13   7  -8 9.10834 4.46898   4
 -13   7   8 6.68338 4.63427   2
   7  -8  13 10.6010 5.11475   1
  -7   8 -13 11.8402 4.80749   4
   7  -8 -13 7.95205 4.24132   3
   8 -13  -7 1.82501 3.78976   3
  13  -7  -8 9.06905 4.36967   3
  13   7   8 6.27681 3.53533   4
  -7  -8  13 9.46323 4.63235   2
   7   8  13 8.64134 5.37346   1
 -13  -7   8 10.2351 4.95175   2
  -8  13  -7 10.0187 4.57562   1
   8  13   7 15.5333 6.43322   1
  -8 -13   7 5.92247 3.39346   2
   8 -13   9 5.79974 4.14334   2
  -9   8  13 3.55494 4.45732   2
  -8  13   9 2.30303 3.37722   2
  -9  -8 -13 4.02236 3.65371   3
  13   9   8 1.65622 3.01990   4
 -13  -9   8 12.9327 5.66848   2
  -9   8 -13 4.47870 3.51416   4
   9  -8 -13 2.53687 2.77667   3
   0   9 -13 2.60064 2.93391   1
   9 -13   0 4.99284 3.22729   3
   0  -9 -13 6.15448 3.32867   3
   9 -13   0 -0.1844 3.25858   2
  13   0  -9 17.7197 6.19002   3
  13   0  -9 1.38124 2.66216   4
 -13   0   9 1.95018 3.45330   2
  -9 -13   0 4.44377 3.41513   3
  -9  13   0 -2.0299 2.39262   1
  -9  13   0 4.47678 3.57896   2
  13   0   9 6.88776 4.22349   4
   0   9  13 3.75123 3.91274   1
 -13   0  -9 4.34740 2.88799   3
 -13   0  -9 3.74048 3.16800   4
   0  -9  13 2.13246 2.88051   2
   0  -9  13 0.66147 2.27978   1
   0   9 -13 4.55389 3.34755   4
  13  -2   9 204.070 14.4293   4
 -13  -2  -9 191.510 13.9906   4
  -9 -13  -2 208.066 16.2393   3
   2  -9  13 193.661 15.9927   1
 -13   2   9 208.157 17.7624   2
  -9  13   2 207.932 16.7484   2
  -2  -9 -13 204.565 15.5834   3
   2   9 -13 204.967 15.7988   1
   9 -13   2 224.589 17.4593   2
  13   2  -9 197.449 14.5076   4
   2  -9  13 203.071 15.6465   2
 -13  -2  -9 216.933 16.2933   3
   2   9 -13 197.262 14.3292   4
  -2   9  13 203.478 16.1704   1
  -2  -9  13 199.953 16.2878   2
  13  -2  -9 219.422 14.3109   4
   2   9  13 223.490 17.7684   1
   9  13   2 203.633 17.5402   1
  -2   9 -13 214.067 14.5140   4
  -2   9 -13 198.230 16.8193   1
 -13   2  -9 196.432 14.0765   4
  -9  13  -2 208.508 16.5605   2
   9 -13  -2 196.258 15.9830   3
  -9  13  -2 181.720 14.7747   1
   2  -9 -13 205.028 15.7107   3
  13  -2  -9 201.420 16.0076   3
 -13  -2   9 202.608 16.5973   2
  13   2   9 191.179 14.0732   4
  -9 -13  -4 0.00437 3.36894   3
  13   4  -9 10.1429 4.50888   4
   4  -9  13 0.64112 2.50922   1
  -9  13   4 0.36130 2.79186   2
   9 -13   4 2.00345 3.36532   2
 -13  -4  -9 0.83040 3.32182   3
 -13   4   9 1.41062 3.52700   2
   4   9 -13 2.75144 2.97442   4
   4  -9  13 5.96963 3.67879   2
  -4  -9 -13 4.27725 2.76170   3
 -13  -4   9 1.28005 2.65898   2
  13   4   9 1.90012 2.85226   4
  -4   9 -13 13.1779 4.23570   4
  -4   9 -13 3.98531 4.58694   1
   4   9  13 -0.9612 2.50563   1
  -4  -9  13 5.02893 4.00459   2
  -9  13  -4 10.0005 4.28068   1
  13  -4  -9 10.9858 4.84393   3
 -13   4  -9 4.65923 3.29181   4
   4  -9 -13 6.88871 4.05898   3
   9 -13  -4 20.9551 6.94381   3
   9  13   4 7.06126 4.41157   1
   6  -9  13 213.580 18.0405   1
 -13   6   9 203.171 18.3603   2
   9 -13   6 203.474 17.1244   2
  -9  13   6 211.757 17.3619   2
  13   6  -9 198.697 15.5525   4
 -13  -6  -9 232.524 17.9557   3
  -9 -13  -6 215.570 17.9603   3
  -6  -9 -13 220.216 17.0971   3
   6   9 -13 207.303 15.0569   4
 -13   6  -9 220.322 14.5855   4
  -6   9 -13 232.693 15.2589   4
  13   6   9 218.404 15.4399   4
  -6   9 -13 208.429 18.0924   1
  13  -6  -9 221.102 17.7050   3
   6  -9 -13 237.967 17.6763   3
  -9 -13   6 218.883 16.5748   2
  -6  -9  13 222.962 18.3062   2
  -9  13  -6 221.356 16.9443   1
   6   9  13 251.256 19.9308   1
 -13  -6   9 219.163 17.1649   2
   9  13   6 218.526 18.2373   1
   9 -13  -6 221.778 18.3663   3
  -9  13   8 10.8197 5.96502   2
   9 -13   8 6.05171 4.94607   2
  -8   9  13 4.54543 4.57107   2
  -8  -9 -13 18.4756 6.52613   3
   9  13  -8 1.90948 3.97730   4
   9  13   8 2.39126 3.96542   1
  -9  13  -8 7.77090 4.98835   1
 -13  -8   9 2.14696 2.99275   2
  13   8   9 2.48533 3.45664   4
   8  -9 -13 6.00192 3.75950   3
  -9 -13   8 13.1469 5.81388   2
 -13   1  10 200.235 17.3196   2
  -1 -10 -13 219.585 16.9203   3
 -10 -13  -1 213.180 16.8160   3
   1 -10  13 209.431 16.8183   2
   1  10 -13 192.605 14.3254   4
 -10  13   1 231.140 17.7759   2
  10 -13   1 202.801 16.9120   2
   1  10 -13 213.066 17.0030   1
 -13  -1 -10 216.012 15.0624   4
  13   1 -10 219.382 15.4993   4
  -1  10  13 222.553 17.2128   1
  -1 -10  13 210.550 16.8366   2
 -13   1 -10 230.832 15.4874   4
 -10  13  -1 205.976 17.0073   2
  -1  10 -13 206.012 17.5295   1
  -1  10 -13 218.090 15.0081   4
 -13  -1  10 222.270 17.9980   2
  13  -1 -10 218.262 16.7684   3
  13   1  10 220.289 15.4872   4
   1  10  13 213.834 17.5141   1
  10 -13  -1 223.311 17.4710   3
   1 -10 -13 233.037 17.2916   3
  13  -1 -10 194.690 14.1199   4
 -10 -13  -3 154.237 14.8993   3
 -13   3  10 175.117 17.0936   2
   3 -10  13 162.068 14.5787   2
 -10  13   3 168.860 15.7706   2
 -13  -3 -10 155.688 14.3912   3
   3  10 -13 166.612 13.5466   4
  13   3 -10 156.410 13.4968   4
  -3  10  13 192.906 15.6892   1
  10 -13   3 162.111 15.2538   2
 -13  -3 -10 156.630 13.2773   4
  -3 -10 -13 166.508 14.8378   3
   3  10  13 172.821 16.3836   1
  10 -13  -3 198.067 16.8094   3
  -3 -10  13 180.794 16.0617   2
   3 -10 -13 180.697 15.3685   3
 -13  -3  10 182.559 16.0860   2
  13   3  10 167.231 13.6272   4
 -10  13  -3 150.415 14.5137   2
  -3  10 -13 160.753 15.9703   1
 -13   3 -10 186.655 13.9363   4
  13  -3 -10 198.319 16.2830   3
 -10  13  -3 184.754 14.9842   1
  -3  10 -13 158.012 12.6746   4
 -13  -5 -10 175.214 14.0954   4
  -5 -10 -13 180.246 15.5681   3
 -13  -5 -10 168.633 15.3997   3
 -13   5  10 176.355 17.3837   2
 -10 -13  -5 176.807 16.5177   3
  10 -13   5 178.241 15.9801   2
   5  10 -13 189.835 14.4460   4
 -10  13   5 157.672 15.4512   2
  13   5 -10 192.213 15.2842   4
   5 -10  13 188.473 17.0271   1
 -13   5 -10 178.374 13.6116   4
 -13  -5  10 165.315 15.6092   2
  10  13   5 161.256 15.8257   1
  10 -13  -5 179.000 16.5666   3
   5 -10 -13 175.532 15.7254   3
  13   5  10 149.691 13.1263   4
  -5  10 -13 191.310 17.3428   1
 -10  13  -5 187.269 15.5167   1
  -5 -10  13 175.161 16.5496   2
   5  10  13 170.203 16.8387   1
  13  -5 -10 200.749 16.7711   3
  10  13  -7 139.805 18.1184   4
  10 -13   7 131.619 14.5407   2
  -7 -10 -13 139.532 25.8186   3
  10  13   7 130.452 14.3802   1
 -10 -13   7 134.197 13.4993   2
 -10  13  -7 121.188 13.2423   1
   0  11  13 7.74285 4.35541   1
   0 -11 -13 2.13960 3.28363   3
 -13   0 -11 6.05509 3.54566   4
  11 -13   0 0.49177 3.60950   3
   0 -11  13 1.66173 3.08683   2
   0  11 -13 5.19392 4.75664   1
 -13   0  11 3.25160 3.86607   2
 -11 -13   0 6.08219 4.89774   3
 -11  13   0 6.15688 4.22686   2
  13   0 -11 1.12129 3.20151   4
  13   0  11 -1.6544 2.64392   1
   0  11 -13 4.19414 3.75871   4
 -13   2  11 216.873 18.5817   2
   2 -11  13 194.168 16.3721   2
  11 -13   2 206.710 17.6588   2
 -13  -2 -11 182.301 14.4466   4
  -2 -11 -13 221.087 17.2949   3
 -11  13   2 212.568 17.9313   2
   2  11 -13 204.143 14.9119   4
  -2  11  13 196.044 16.6740   1
   2  11 -13 201.527 17.0350   1
  13   2 -11 216.737 15.6957   4
 -11 -13  -2 217.252 17.6782   3
  13  -2  11 196.931 16.4541   1
  -2 -11  13 220.029 17.8074   2
   2  11  13 192.270 17.3346   1
 -11  13  -2 214.930 17.7785   2
 -13  -2  11 205.573 17.7711   2
  13   2  11 206.723 17.8564   1
  -2  11 -13 206.621 17.6503   1
  11 -13  -2 231.626 18.4616   3
   2 -11 -13 209.991 17.0444   3
 -13   2 -11 194.068 14.6608   4
  13   4 -11 5.17867 6.17423   4
  13  -4  11 11.0865 4.97694   1
 -13  -4 -11 14.8190 8.85162   4
  11 -13   4 10.0584 5.60432   2
  -4 -11 -13 9.77907 4.59956   3
   4  11 -13 7.17494 4.17965   4
   4 -11  13 8.90580 5.20813   2
 -11 -13  -4 5.47769 4.25332   3
 -13  -4 -11 5.75776 4.53605   3
  13  -4 -11 13.0300 5.37154   3
  13   4  11 10.6227 6.12309   4
  11 -13  -4 11.2934 5.90134   3
 -13  -4  11 20.4151 9.48845   2
 -11  13  -4 4.27209 3.60695   2
   4 -11 -13 5.60285 3.85350   3
 -13   4 -11 2.20958 2.74077   4
  11  13  -6 121.223 15.5900   4
  13  -6  11 130.379 14.2357   1
 -13   6 -11 130.895 15.3137   4
 -11  13  -6 115.732 16.3538   1
  13  -1  12 6.44658 4.52639   1
  13   1 -12 6.37756 4.14167   4
   1 -12  13 3.56583 6.69106   2
   1  12 -13 7.22160 4.55477   1
 -12 -13  -1 10.4812 5.98487   3
  -1  12  13 3.95638 4.50432   1
  -1  12 -13 14.8987 8.21387   1
  13  -1 -12 9.67516 5.43305   4
  13   1  12 7.05366 5.17932   1
  12 -13  -1 5.86873 4.27117   3
   3  12 -13 4.31717 3.63582   4
  13  -3  12 1.77070 3.38655   1
  13   3  12 -0.7282 3.74547   1
 -14   0   0 13.9508 5.37520   3
   0 -14   0 6.39674 3.70073   2
   0   0 -14 2.70167 2.08365   4
   0   0  14 0.65193 1.97560   1
   0  14   0 -0.9256 1.71027   1
  14   0   0 3.76444 2.78853   4
 -14   2   0 28.0298 6.96888   3
  -2   0 -14 36.3032 6.84188   4
  -2   0  14 41.6074 8.21622   1
  -2   0  14 41.6199 7.82258   2
   0 -14  -2 38.8109 7.63512   2
   0 -14  -2 33.2331 7.32904   3
   0 -14   2 39.0941 8.41821   2
   0  14  -2 32.8071 7.68145   1
   0  14   2 43.9594 8.93153   1
   2   0 -14 31.5806 6.52297   4
   2   0  14 33.6273 7.95165   1
  14  -2   0 27.9168 7.29572   3
  14  -2   0 44.2364 7.47286   4
  14   2   0 27.6581 5.99961   4
 -14  -2   0 48.0015 9.50598   3
  14  -4   0 987.477 29.4775   4
  14   4   0 1055.02 32.7220   4
  14  -4   0 1050.70 37.8353   3
   0  14   4 1033.10 36.8578   1
   4   0 -14 1037.58 32.2037   4
   4   0  14 1062.40 37.8659   1
 -14  -4   0 998.662 35.9196   3
 -14   4   0 1044.25 34.6450   2
 -14   4   0 1072.66 37.5383   3
  -4   0 -14 1050.82 32.6463   4
  -4   0  14 1057.60 34.9536   2
   0 -14  -4 1032.94 35.8696   3
   0 -14   4 1040.79 35.8954   2
   0  14  -4 1075.22 37.6731   1
   0 -14   6 4.05514 3.16695   2
   0  14  -6 6.96686 4.43398   1
 -14  -6   0 9.79283 4.98439   3
   0 -14  -6 13.3192 5.24827   3
  -6   0 -14 10.9589 4.27132   4
  -6   0  14 9.99932 4.37785   2
 -14   6   0 7.55031 4.18710   2
   6   0 -14 8.79190 3.63856   4
   6   0  14 7.09779 4.01342   1
  14  -6   0 8.41950 4.40808   3
  14   6   0 3.95233 2.70613   4
   0  14   6 10.6704 4.69512   1
 -14   8   0 21.0253 6.65153   2
   8   0 -14 23.8277 6.39326   4
  14   8   0 25.7083 6.96972   4
   0 -14   8 15.4883 5.47383   2
   8   0  14 13.6043 6.23939   1
   0  14  -8 23.7953 7.50454   1
   0 -14  -8 20.0862 6.87844   3
  -8   0 -14 22.4674 6.00357   4
 -14  -8   0 23.4110 6.76881   3
  14  -8   0 18.7347 6.90183   3
  -8   0  14 24.3361 7.84763   2
   0  14   8 21.8667 6.86149   1
   0  14  10 10.1324 5.14418   1
 -14  10   0 13.5036 5.95421   2
  14  10   0 13.2483 4.78843   4
 -10   0 -14 7.74104 4.23232   4
  14 -10   0 18.4202 6.72526   3
   0  14 -10 10.5432 4.98531   1
 -10   0  14 16.0370 6.84186   2
  10   0 -14 10.6387 4.54707   4
  10   0  14 14.3363 6.10708   1
   0 -14 -10 10.4567 4.80860   3
   0 -14  10 14.4622 6.28980   2
 -14 -10   0 19.0180 6.86462   3
   1   1 -14 248.306 14.5875   4
   1  -1  14 233.335 16.3423   1
 -14  -1  -1 227.642 16.2384   3
  -1 -14  -1 256.018 15.6676   3
  -1   1  14 251.086 16.4139   1
 -14   1   1 232.262 15.4412   2
  -1  14   1 245.086 16.7454   1
  -1  -1 -14 224.778 13.5907   4
 -14   1   1 214.589 15.9158   3
   1 -14   1 252.407 16.2948   2
  14  -1   1 235.193 13.7147   4
  14   1  -1 230.652 14.0316   4
   1  14  -1 230.226 16.2199   1
  -1 -14  -1 246.502 15.2900   2
  -1  -1  14 242.342 15.9528   1
  -1 -14   1 244.309 15.7309   2
 -14   1  -1 245.287 16.9709   3
  -1  14  -1 237.456 16.4117   1
  14   1   1 216.469 13.6687   4
   1  14   1 215.923 15.9665   1
  14  -1  -1 243.255 13.8550   4
   1   1  14 241.126 16.5956   1
   1 -14  -1 234.470 15.5216   2
   1 -14  -1 232.514 15.2664   3
  -1   1 -14 216.278 13.7448   4
   1  -1 -14 270.989 14.8768   4
 -14  -1   1 247.474 16.8802   3
  14   3  -1 279.074 16.1427   4
  -1  14   3 335.385 19.7409   1
   3  -1  14 307.651 19.3692   1
   3   1 -14 303.376 16.6228   4
  14  -3   1 293.452 19.0439   3
  -3  -1 -14 292.771 15.8498   4
   1 -14   3 292.360 18.0978   2
 -14   3   1 279.636 17.2003   2
 -14   3   1 299.860 19.0517   3
 -14  -3  -1 287.831 18.4142   3
  14  -3   1 298.987 15.3466   4
  -1 -14  -3 281.626 17.3996   3
  -3   1  14 291.759 16.7728   2
   1  14  -3 297.248 18.7051   1
   3   1  14 311.359 19.5478   1
   1 -14  -3 306.277 18.4226   3
   3  -1 -14 308.038 16.2508   4
  -3   1 -14 288.539 15.9529   4
 -14  -3   1 296.034 18.5886   3
  14   3   1 278.093 15.8941   4
   1 -14  -3 305.567 17.5488   2
  -1  14  -3 310.701 19.2144   1
 -14   3  -1 302.851 18.9250   3
  -3  -1  14 299.335 17.2864   2
  14  -3  -1 319.745 15.7416   4
   1  14   3 295.450 18.8671   1
  -1 -14   3 306.262 18.1930   2
  14  -3  -1 309.336 19.7682   3
   1 -14   5 128.170 12.2923   2
 -14   5   1 144.772 12.6613   2
  -5   1  14 125.062 11.9961   2
  14   5  -1 116.605 10.6644   4
  14  -5   1 131.215 12.8923   3
  -1  14   5 150.757 13.5705   1
   1  14  -5 136.884 12.9801   1
  -5  -1 -14 127.244 10.5981   4
   5  -1  14 148.507 13.7814   1
   5   1 -14 122.221 10.6731   4
  -1 -14  -5 130.916 12.2204   3
 -14  -5  -1 142.543 13.2552   3
 -14   5  -1 130.327 11.6336   2
  -5  -1  14 140.250 12.5576   2
 -14  -5   1 135.894 12.7805   3
  14   5   1 128.185 10.9114   4
  -1 -14   5 119.881 11.7618   2
   1  14   5 136.858 13.0711   1
   1 -14  -5 134.624 12.5641   3
  14  -5  -1 129.271 13.1516   3
   5  -1 -14 109.714 10.1391   4
   5   1  14 155.094 14.3139   1
  -5   1 -14 121.910 10.6204   4
 -14   5  -1 123.752 12.4339   3
  -1  14  -5 137.154 13.0748   1
   1 -14   7 207.015 16.1770   2
   1  14  -7 208.559 16.3048   1
   7   1 -14 169.029 13.0786   4
 -14   7   1 207.264 16.0798   2
   7  -1  14 211.412 17.4675   1
  -7   1  14 210.147 16.5704   2
  14  -7   1 213.022 16.9127   3
  14   7  -1 206.974 14.5948   4
  -1 -14  -7 191.582 15.7744   3
  -1  14   7 210.143 16.3760   1
 -14  -7  -1 204.295 16.2678   3
  -7  -1 -14 227.777 14.8765   4
   1 -14  -7 203.778 16.5609   3
  14  -7  -1 185.318 16.2553   3
  -1  14  -7 190.433 16.1560   1
  -7   1 -14 204.762 14.1546   4
  -1 -14   7 192.973 15.7505   2
   7   1  14 208.830 17.5656   1
   1  14   7 200.285 16.2680   1
  -7  -1  14 185.474 15.6408   2
   7  -1 -14 198.043 13.5767   4
 -14   7  -1 207.420 15.6962   2
 -14  -7   1 219.917 16.6936   3
  14   7   1 220.495 14.6382   4
  14   9  -1 180.315 14.0689   4
   9   1 -14 146.150 12.5215   4
  -9  -1 -14 162.435 13.2130   4
   1  14  -9 137.991 13.9869   1
  -1  14   9 186.915 16.0296   1
 -14   9   1 159.019 14.9481   2
 -14  -9  -1 141.832 14.1817   3
  -1 -14  -9 158.223 14.9640   3
   1 -14   9 155.467 14.6987   2
  14  -9   1 141.860 14.5059   3
   9  -1  14 172.424 16.3860   1
  -9   1  14 161.274 15.5962   2
   9   1  14 165.993 16.0968   1
  -1 -14   9 136.874 13.7717   2
 -14  -9   1 162.818 15.1440   3
  -9   1 -14 163.250 12.9698   4
   1 -14  -9 146.692 14.5639   3
  -1  14  -9 142.414 14.4761   1
  14  -9  -1 184.549 16.7693   3
   1  14   9 151.990 14.7278   1
 -14   9  -1 162.596 14.8275   2
  14   9   1 143.991 12.3707   4
   9  -1 -14 149.797 12.2912   4
  -9  -1  14 161.799 15.3578   2
  14  11  -1 134.656 12.8081   4
  14 -11   1 141.431 15.2778   3
  11   1 -14 127.771 16.9207   4
   1  14 -11 149.019 16.3306   1
 -14  11  -1 156.806 27.9807   2
  14  11   1 147.172 12.7326   4
 -14 -11   1 147.233 14.9092   3
  11  -1 -14 135.690 12.3279   4
  14 -11  -1 161.643 22.6394   3
   0  -2  14 24.5418 6.54673   1
 -14   0   2 35.7979 7.73856   2
 -14   0  -2 32.3634 7.48139   3
 -14   0   2 41.8179 8.79305   3
   2 -14   0 36.8782 7.33698   3
  14   0   2 24.9134 5.85993   4
  -2 -14   0 32.6331 7.05844   3
  -2  14   0 31.0803 7.42921   1
   0  -2 -14 40.9809 6.89721   4
   2  14   0 31.3523 7.96800   1
   0   2 -14 37.4347 7.19443   4
  -2 -14   0 39.6944 7.69490   2
  14   0  -2 26.5673 6.12963   4
   0   2  14 38.3362 8.05798   1
   2 -14   0 41.4982 8.44348   2
   2   2 -14 39.3788 7.52731   4
  -2  14   2 28.8323 7.20487   1
  -2  -2 -14 14.0697 3.91908   4
   2 -14   2 17.9074 5.58438   2
  14  -2   2 2.32827 2.07778   4
  -2 -14  -2 0.31486 2.58049   3
   2  -2  14 -1.3460 2.09647   1
  -2   2  14 -0.6794 1.83053   1
  14   2  -2 0.39452 2.11860   4
   2  14  -2 1.10982 2.20922   1
 -14  -2  -2 -1.4785 2.20549   3
 -14   2   2 13.5642 5.04401   2
 -14   2   2 -0.0560 2.27914   3
  14  -2  -2 1.24537 2.65280   3
 -14   2  -2 -0.1403 2.55844   3
  14   2   2 2.66660 2.56604   4
  -2  -2  14 0.77878 2.34459   1
 -14  -2   2 1.82501 2.98762   3
   2  14   2 1.45056 2.93832   1
  -2  -2  14 0.68761 2.07041   2
   2  -2 -14 0.76878 1.77087   4
  -2   2 -14 5.95665 3.35760   4
  -2  14  -2 23.3342 6.77661   1
   2 -14  -2 1.57347 2.07383   3
  14  -2  -2 4.67214 2.76279   4
   2   2  14 -2.4235 1.77983   1
   2 -14  -2 0.67515 2.06144   2
  -2 -14   2 3.44261 2.68426   2
   2 -14   4 1585.19 46.3255   2
   2  14  -4 1580.81 47.0023   1
  14  -4   2 1597.04 39.5976   4
  -2  14   4 1591.95 46.7180   1
  -4  -2 -14 1645.96 41.7921   4
  -4   2  14 1576.45 44.2247   2
  -2 -14  -4 1588.63 46.0564   3
   4   2 -14 1541.93 41.8937   4
 -14  -4  -2 1555.81 46.7354   3
  14   4  -2 1569.27 42.0908   4
  14  -4   2 1565.00 46.9613   3
   4  -2  14 1554.84 47.5380   1
 -14   4   2 1534.76 45.2668   2
  -2  14   4 1537.21 43.1177   2
 -14   4  -2 1606.71 46.8665   3
 -14  -4   2 1537.47 46.2194   3
   4  -2 -14 1587.96 40.5324   4
   2 -14  -4 1584.62 43.8855   2
  14  -4  -2 1593.69 48.2861   3
   4   2  14 1620.26 48.8030   1
   2  14   4 1533.86 47.0796   1
   2 -14  -4 1655.53 47.1507   3
  -2  14  -4 1540.34 46.6495   1
  14   4   2 1589.36 41.7893   4
  -4   2 -14 1582.24 41.9162   4
  -2 -14   4 1483.73 44.3601   2
  -4  -2  14 1535.82 44.6137   2
  14   6  -2 5.94707 3.89930   4
   2 -14   6 20.0011 6.75550   2
 -14   6   2 8.52483 4.68600   2
  -6  -2 -14 4.75060 3.05352   4
   6  -2  14 12.9333 5.43636   1
   6   2 -14 4.25202 3.33978   4
  -6   2  14 5.71156 3.89506   2
 -14  -6  -2 7.46657 4.40094   3
  -2  14   6 7.75075 4.21532   1
   2  14  -6 2.07766 2.88805   1
  -2 -14  -6 10.2020 4.72144   3
  14  -6   2 9.61379 5.00330   3
   6   2  14 5.68384 4.64030   1
 -14  -6   2 8.72695 4.78002   3
  14  -6  -2 46.8636 10.0621   3
  -2  14  -6 3.30025 3.17178   1
  -2 -14   6 11.7672 5.08102   2
   6  -2 -14 15.0731 4.61744   4
 -14   6  -2 2.67106 3.39044   2
  14   6   2 3.17828 3.07039   4
  -6   2 -14 9.01109 3.81198   4
  -6  -2  14 11.6312 5.02726   2
   2  14   6 5.96417 3.19161   1
   2 -14  -6 6.86227 4.00793   3
 -14   6  -2 6.75493 4.07777   3
   8   2 -14 2.49448 2.65728   4
  -2 -14  -8 0.64352 2.87348   3
  -2  14   8 0.70232 2.62814   1
  14  -8   2 2.97606 4.14816   3
 -14   8   2 4.78101 3.59549   2
 -14  -8  -2 5.32210 3.76325   3
   2  14  -8 -0.0337 2.67493   1
   8  -2  14 2.18034 3.79824   1
  -8  -2 -14 0.82048 2.38715   4
  -8   2  14 3.37130 3.32484   2
  14   8  -2 4.01378 3.63210   4
   2 -14   8 7.84962 4.92000   2
  -2 -14   8 3.24850 3.34406   2
  14  -8  -2 1.02369 3.76472   3
 -14   8  -2 5.07765 3.56255   2
   8  -2 -14 -0.4411 2.25873   4
   8   2  14 3.00127 4.25095   1
  -8  -2  14 6.97927 4.20501   2
  -2  14  -8 -1.8253 2.63200   1
  -8   2 -14 11.6201 4.77875   4
   2  14   8 3.10804 2.77398   1
 -14  -8   2 0.22674 2.73575   3
  14   8   2 2.21508 2.68621   4
   2 -14  -8 2.15224 3.24885   3
  -2 -14 -10 12.9730 6.29970   3
  10   2 -14 3.14868 3.96572   4
 -14 -10  -2 7.02833 4.41100   3
 -10   2  14 2.47792 4.30008   2
 -14  10   2 5.83921 4.20934   2
 -10  -2 -14 2.88838 2.84889   4
  -2  14  10 6.21262 4.03866   1
  10  -2  14 0.22150 3.34717   1
   2 -14  10 -1.1117 3.01523   2
   2  14 -10 3.51918 4.00769   1
  14  10  -2 1.84695 3.79109   4
  14 -10   2 0.85827 3.91768   3
   2 -14 -10 1.74185 2.69611   3
 -14  10  -2 -0.1416 3.34811   2
  14 -10  -2 3.57464 4.32458   3
 -14 -10   2 0.31281 2.59902   3
 -10  -2  14 2.62435 3.98915   2
 -10   2 -14 1.78560 3.21396   4
   2  14  10 -1.4973 2.83833   1
  -2 -14  10 2.76420 2.61706   2
  -2  14 -10 2.70513 3.66943   1
  14  10   2 -0.7206 2.26245   4
  10   2  14 5.93368 4.83031   1
  -3 -14  -1 306.776 17.6589   3
  -3  14   1 301.549 18.6453   1
  14   1  -3 313.248 16.5096   4
  14  -1   3 310.094 16.1239   4
   3 -14   1 306.744 18.3916   2
  -1   3  14 296.630 18.1256   1
   3  14  -1 292.094 18.6267   1
  -1  -3 -14 298.967 15.4889   4
   1  -3  14 302.144 18.7871   1
 -14   1   3 302.189 19.0328   3
 -14   1   3 285.168 18.1133   2
   1   3 -14 329.990 17.3283   4
 -14  -1  -3 277.197 18.0923   3
 -14  -1   3 319.666 19.5376   3
  -3  14  -1 316.600 19.0668   1
  -3 -14   1 301.912 17.2999   2
   1   3  14 298.480 18.9497   1
  -1  -3  14 297.291 17.0796   2
  14   1   3 301.196 16.3044   4
  14  -1  -3 279.221 15.2312   4
   3  14   1 317.860 19.5223   1
 -14  -1   3 299.882 18.1936   2
 -14   1  -3 286.605 18.2348   3
   3 -14  -1 309.442 17.8547   3
   1  -3 -14 299.163 15.4796   4
  -1   3 -14 308.475 16.5490   4
  -1  -3  14 312.676 18.3171   1
  14  -1  -3 272.030 18.4393   3
   3 -14  -1 299.938 18.2332   2
  14  -3   3 200.349 12.7509   4
 -14   3   3 214.148 15.6562   2
  -3  -3 -14 210.425 13.3094   4
  -3  14   3 227.032 15.4175   2
   3   3 -14 206.683 13.9790   4
  14   3  -3 225.666 14.5550   4
 -14  -3  -3 214.894 15.9594   3
  -3 -14  -3 216.851 15.4812   3
   3 -14   3 201.220 15.2900   2
  -3  14   3 217.374 15.7207   1
   3  14  -3 181.871 14.4788   1
   3  -3  14 205.335 15.9721   1
 -14  -3   3 230.859 16.4084   3
   3 -14  -3 194.714 14.7997   3
  -3  14  -3 218.722 16.3013   1
   3 -14  -3 204.747 15.0620   2
  -3  -3  14 188.989 14.1031   2
   3  14   3 201.530 15.8015   1
  14  -3  -3 213.440 16.4073   3
   3   3  14 220.833 16.6556   1
 -14   3  -3 201.923 15.4773   3
  14   3   3 222.011 14.2788   4
   3  -3 -14 205.588 12.9157   4
  -3   3 -14 206.561 13.7325   4
  14  -3  -3 232.940 13.4105   4
  -3 -14   3 213.629 15.0966   2
   5   3 -14 211.089 14.4126   4
   3 -14   5 223.796 16.4543   2
   3  14  -5 262.739 17.9165   1
  -3  14   5 224.145 15.5606   2
  14   5  -3 228.176 15.0130   4
  -5   3  14 237.245 16.4122   2
  -3  14   5 239.221 16.7619   1
 -14   5   3 216.091 16.2098   2
   5  -3  14 222.629 17.0999   1
 -14  -5  -3 236.039 17.3345   3
  -5  -3 -14 207.500 13.5224   4
  -3 -14  -5 215.554 16.2756   3
  -5   3 -14 208.493 14.0610   4
 -14  -5   3 220.884 16.1596   3
   3  14   5 239.327 18.0052   1
  -3  14  -5 247.232 17.4415   1
   5   3  14 240.689 17.9584   1
  -5  -3  14 239.526 16.8209   2
  14   5   3 229.047 14.6609   4
  -3 -14   5 206.619 15.6067   2
  14  -5  -3 241.896 18.1558   3
   3 -14  -5 233.365 16.9095   3
   5  -3 -14 221.137 13.5810   4
 -14   5  -3 210.623 15.8555   3
  14   7  -3 197.292 14.6127   4
   3  14  -7 203.479 16.1529   1
  -7  -3 -14 183.086 13.3309   4
 -14   7   3 201.045 16.1936   2
   7  -3  14 198.062 16.8951   1
  14  -7   3 182.325 15.5291   3
  -7   3  14 209.939 16.6980   2
 -14  -7  -3 193.640 16.3216   3
  -3 -14  -7 187.232 15.9125   3
   3 -14   7 169.604 15.0306   2
   7   3 -14 189.718 14.0404   4
  -3  14   7 177.455 15.1135   1
  14   7   3 194.192 13.8480   4
  -7  -3  14 184.401 15.5721   2
   3  14   7 191.618 16.7074   1
  -3 -14   7 205.920 16.1919   2
 -14   7  -3 201.808 15.7614   3
  -7   3 -14 190.988 13.6101   4
   7   3  14 171.622 16.3910   1
  14  -7  -3 198.815 17.0632   3
   3 -14  -7 190.922 16.1922   3
  -3  14  -7 180.267 15.8747   1
 -14  -7   3 186.119 15.0685   3
  14  -9   3 171.438 16.5251   3
  14   9  -3 152.740 13.4028   4
  -3  14   9 156.805 14.4771   1
   3 -14   9 160.290 15.1410   2
   3  14  -9 167.207 15.1416   1
  -9  -3 -14 174.220 13.6421   4
   9  -3  14 175.196 16.4074   1
   9   3 -14 168.430 13.7732   4
 -14   9   3 158.339 15.1076   2
  -9   3  14 174.259 16.5283   2
 -14  -9  -3 168.300 15.8159   3
  -3 -14  -9 187.185 16.4729   3
  -9  -3  14 154.827 15.1863   2
  14  -9  -3 142.885 15.2097   3
  -3  14  -9 169.269 15.7601   1
   3  14   9 166.522 15.8593   1
  -9   3 -14 148.164 12.5579   4
  -3 -14   9 164.427 15.3378   2
  14   9   3 154.905 12.7191   4
   9   3  14 166.562 16.3701   1
 -14  -9   3 170.175 14.8774   3
   3 -14  -9 164.763 15.7879   3
 -14   9  -3 178.100 15.2985   2
  -3  14  11 124.709 19.6246   1
 -14  11  -3 114.888 18.9061   2
  14  11   3 123.870 11.9430   4
 -14   0  -4 999.459 35.7341   3
 -14   0   4 1054.18 36.8653   2
 -14   0   4 977.113 35.6794   3
  14   0   4 992.957 31.3743   4
   0  -4  14 1007.47 33.3542   2
   4 -14   0 1035.77 35.8334   2
   0  -4  14 1000.91 35.1719   1
   4 -14   0 983.803 33.4998   3
   4  14   0 1010.31 36.1006   1
  14   0  -4 1056.75 37.4399   3
  14   0  -4 1061.53 32.0488   4
   0   4  14 971.572 35.5138   1
  -4 -14   0 1017.21 33.5289   3
   0  -4 -14 998.850 29.8635   4
   0   4 -14 1038.32 32.6633   4
  -4  14   0 1032.81 35.9226   1
  14  -2   4 1474.00 40.0466   4
  -2   4  14 1511.02 44.5057   1
   2   4 -14 1521.31 42.0549   4
  14   2  -4 1575.05 42.0853   4
   4 -14   2 1562.99 45.9137   2
 -14  -2  -4 1550.21 45.9382   3
   4  14  -2 1529.59 46.2215   1
 -14   2   4 1589.88 47.3167   2
  -4 -14  -2 1582.49 45.0608   3
  -4  14   2 1533.39 45.5054   1
  -2  -4 -14 1589.19 39.8100   4
   2  -4  14 1587.41 47.2476   1
  -2   4 -14 1550.93 41.8113   4
   4 -14  -2 1595.19 45.5065   2
  -4  14  -2 1538.11 46.3024   1
  14  -2  -4 1578.06 39.6385   4
  -2  -4  14 1567.72 44.5748   2
   4 -14  -2 1541.19 45.1874   3
 -14  -2   4 1574.73 46.4907   3
  14   2   4 1575.62 41.5457   4
  -2  -4  14 1540.81 43.5513   1
   4  14   2 1554.91 46.9673   1
   2  -4 -14 1585.92 39.1940   4
   2   4  14 1565.61 47.7877   1
 -14   2  -4 1578.05 45.9727   3
  14  -2  -4 1619.82 48.2824   3
 -14  -2   4 1578.60 45.0767   2
  -4 -14   2 1516.54 42.9142   2
  14  -4   4 2.31197 2.30508   4
 -14  -4  -4 -1.9033 1.98192   3
  -4  -4 -14 8.73589 3.53925   4
   4   4 -14 2.98390 3.17608   4
   4  14  -4 6.68919 3.26118   1
   4  -4  14 2.79104 3.40836   1
  -4 -14  -4 -1.5072 2.35678   3
  -4  14   4 4.24950 3.02956   2
   4 -14   4 2.40639 3.03131   2
 -14   4   4 -0.2769 2.74339   2
  14   4  -4 1.94069 2.56316   4
  -4  14   4 1.83112 2.63305   1
   4  14   4 2.15710 3.53745   1
   4 -14  -4 3.66794 3.42792   2
  -4  14  -4 0.99595 1.95666   1
 -14  -4   4 1.75459 2.64635   3
  14   4   4 10.1202 4.16665   4
 -14   4  -4 4.40310 3.69970   3
  -4 -14   4 9.24955 4.15419   2
  14  -4  -4 3.51363 3.43918   3
 -14  -4   4 -1.7167 2.22828   2
  -4  -4  14 8.26098 4.43949   2
  -4   4 -14 16.2819 5.09041   4
   4 -14  -4 13.9683 5.22981   3
   4   4  14 3.79870 3.34252   1
  -6   4  14 999.718 36.4358   2
  -4  14   6 1018.40 36.7893   1
  -4 -14  -6 1042.50 38.1744   3
  -6  -4 -14 1003.31 32.3072   4
  -4  14   6 996.184 35.2238   2
   4  14  -6 983.306 36.4621   1
   4 -14   6 1042.59 37.9163   2
 -14   6   4 1016.92 37.9483   2
  14   6  -4 1041.68 34.6310   4
 -14  -6  -4 961.271 36.9168   3
   6   4 -14 991.950 33.6764   4
   6  -4  14 982.212 38.4592   1
  14   6   4 1046.59 33.6427   4
  -6  -4  14 1043.45 37.8529   2
  -6   4 -14 976.135 32.8885   4
  14  -6  -4 935.905 37.5565   3
  -4 -14   6 994.927 36.5317   2
 -14   6  -4 999.931 36.0987   3
 -14  -6   4 1007.79 36.2059   3
   4  14   6 1000.51 38.6664   1
   4 -14  -6 1069.83 38.7618   3
   6   4  14 1060.49 40.5862   1
  -4  14  -6 988.746 37.7638   1
 -14   8   4 839.270 35.3527   2
   4  14  -8 828.069 33.9705   1
   4 -14   8 828.574 34.7074   2
   8   4 -14 841.279 31.4847   4
  -4  14   8 795.898 33.1739   1
  -8   4  14 826.623 34.8752   2
  -4 -14  -8 808.158 34.7859   3
 -14  -8  -4 791.754 34.6292   3
  14   8  -4 859.840 32.1563   4
   8  -4  14 864.259 36.8116   1
  -8  -4 -14 818.263 29.9926   4
  -8   4 -14 834.604 30.6606   4
  -8  -4  14 844.953 35.3744   2
   8   4  14 796.778 35.9629   1
  -4  14  -8 791.165 34.8731   1
   4  14   8 849.335 36.6688   1
  14  -8  -4 841.662 36.4141   3
  14   8   4 875.671 30.9028   4
   4 -14  -8 851.529 35.7160   3
  -4 -14   8 881.821 35.8052   2
 -14  -8   4 810.999 32.8837   3
  14  10  -4 741.746 34.7248   4
  -4  14  10 717.115 32.5238   1
 -10   4  14 738.731 39.6113   2
  14  10   4 690.063 28.2109   4
 -14   1   5 127.666 13.0672   2
  14   1  -5 120.566 10.6735   4
   1  -5  14 111.210 10.7733   2
 -14  -1  -5 131.455 12.3953   3
  -1   5  14 143.208 13.0699   1
  -5  14   1 139.295 12.4014   1
   5 -14   1 134.125 12.7651   2
   5  14  -1 141.298 12.9143   1
   1  -5  14 125.989 12.3230   1
  -5 -14  -1 124.458 11.3449   3
  -1  -5 -14 129.034 9.89966   4
   1   5 -14 146.504 11.8067   4
  14  -1   5 136.724 11.0471   4
 -14   1   5 122.553 12.3312   3
  -5  14  -1 138.022 12.8137   1
  14   1   5 145.609 11.6191   4
 -14   1  -5 136.000 12.5852   3
  14  -1  -5 123.611 12.8579   3
  14  -1  -5 124.402 10.5318   4
  -1  -5  14 136.688 12.3996   1
  -1  -5  14 125.969 11.7801   2
   1   5  14 133.760 13.0794   1
   5 -14  -1 137.166 12.8278   2
 -14  -1   5 131.441 12.5747   3
   5  14   1 131.204 12.8467   1
   5 -14  -1 130.173 11.9668   3
  -1   5 -14 143.941 11.6309   4
 -14  -1   5 140.457 13.0829   2
 -14   3   5 258.478 18.4638   2
   3   5 -14 252.213 15.9358   4
  -3  -5 -14 244.598 14.0039   4
  14  -3   5 232.168 14.3626   4
  14   3  -5 234.549 15.3220   4
  -5  14   3 235.026 16.4955   1
   5 -14   3 242.529 17.2638   2
  -5 -14  -3 247.645 16.8634   3
 -14  -3  -5 242.259 17.1660   3
  -5  14   3 230.458 16.6214   2
   5  14  -3 227.331 16.6271   1
   3  -5  14 218.721 16.7954   1
  -3   5 -14 212.943 14.3320   4
 -14  -3   5 213.303 15.9703   3
   5 -14  -3 250.615 17.2693   2
 -14  -3   5 267.922 17.4768   2
  -3  -5  14 235.040 16.4662   2
   5 -14  -3 224.918 16.4623   3
  -5 -14   3 233.458 15.8472   2
  14   3   5 229.510 14.7489   4
  14  -3  -5 232.562 17.5963   3
   5  14   3 232.488 17.3010   1
   3   5  14 233.393 17.4533   1
 -14   3  -5 251.677 16.9899   3
  -5  14  -3 229.735 16.7227   1
   5  14  -5 147.635 13.0587   1
   5 -14   5 135.435 13.4448   2
  -5  14   5 156.670 13.7938   2
  -5  14   5 167.509 13.9939   1
 -14  -5  -5 165.002 14.3346   3
  14  -5   5 148.777 11.3361   4
   5   5 -14 143.116 12.5012   4
 -14   5   5 147.795 14.1906   2
  -5 -14  -5 145.453 13.7779   3
  -5  -5 -14 147.826 11.3011   4
   5  -5  14 166.622 15.0818   1
  14   5  -5 153.724 12.9662   4
  -5 -14   5 164.088 13.7917   2
  14  -5  -5 154.732 14.3770   3
   5  14   5 146.584 14.4772   1
 -14   5  -5 165.819 13.9515   3
  -5  -5  14 154.588 14.0312   2
  -5   5 -14 163.404 12.6426   4
  -5  14  -5 146.800 13.7515   1
   5 -14  -5 162.160 14.5133   3
 -14  -5   5 176.592 14.2054   2
   5   5  14 130.715 13.4025   1
 -14  -5   5 142.271 13.1750   3
  14   5   5 160.818 12.4874   4
   5 -14   7 168.896 15.2672   2
   7   5 -14 170.172 13.7218   4
 -14  -7  -5 186.270 16.1292   3
  -5 -14  -7 171.415 15.7474   3
  -7  -5 -14 184.282 13.2907   4
  -5  14   7 180.583 15.0049   1
 -14   7   5 164.590 15.1710   2
  14   7  -5 175.353 14.1265   4
   7  -5  14 168.428 15.7640   1
   5  14  -7 159.252 15.5489   1
  -5  14   7 173.683 14.7126   2
  -7   5  14 172.397 15.6100   2
  -7   5 -14 170.351 13.0824   4
  14   7   5 189.630 13.7160   4
  -5 -14   7 193.610 15.9472   2
   7   5  14 172.561 16.6763   1
  14  -7  -5 169.632 15.8192   3
   5  14   7 167.440 16.0196   1
  -5  14  -7 183.771 15.7418   1
  -7  -5  14 172.503 15.3025   2
   5 -14  -7 178.017 15.9564   3
  -9   5  14 196.961 17.5310   2
  14   9  -5 204.413 15.8004   4
   9   5 -14 180.130 17.1028   4
  -9  -5 -14 178.758 13.7472   4
  -5 -14  -9 177.816 29.3385   3
 -14  -9  -5 180.037 19.8561   3
 -14   9   5 194.174 17.5874   2
   5 -14   9 180.060 16.2522   2
   9  -5  14 148.295 15.9191   1
  -5  14  -9 148.798 23.5571   1
  -9   5 -14 180.236 13.9922   4
  -9  -5  14 173.820 18.7859   2
   5  14   9 181.674 19.4279   1
  14  -9  -5 182.449 19.9453   3
  -5 -14   9 183.506 16.4074   2
   9   5  14 190.421 17.9888   1
  14   9   5 173.493 13.5778   4
   5 -14  -9 166.013 22.7956   3
  14   0  -6 10.9314 5.24276   3
   6 -14   0 7.11900 3.80835   3
   6  14   0 8.43404 4.24361   1
   0  -6  14 21.4910 6.31033   1
   0   6  14 10.5870 4.85123   1
   6 -14   0 11.4979 5.25340   2
 -14   0   6 10.7941 5.60063   2
 -14   0   6 18.7517 6.15585   3
   0  -6  14 18.2052 5.64762   2
  14   0  -6 8.67398 3.99521   4
  14   0   6 14.3548 4.73857   4
  -6 -14   0 10.4743 4.27982   3
  -6  14   0 10.2208 4.58144   1
 -14   0  -6 5.54267 3.89258   3
   0   6 -14 12.0922 4.81497   4
  -6  14   2 4.24452 3.90107   2
 -14  -2  -6 3.57619 3.47911   3
  14  -2   6 5.68376 3.49806   4
  -2   6  14 20.9889 6.69724   1
   6 -14   2 11.9703 5.32756   2
   6  14  -2 6.88175 4.41597   1
  -6 -14  -2 24.5406 6.48587   3
   2  -6  14 3.48795 2.95272   1
  -6  14   2 1.61054 2.81868   1
  14   2  -6 5.37961 3.63899   4
   2   6 -14 7.77261 4.31898   4
 -14   2   6 10.5086 4.98420   2
  14  -2  -6 12.2389 5.24515   3
   6 -14  -2 9.56372 4.72033   2
  14   2   6 4.62436 3.34729   4
 -14  -2   6 5.77758 3.87717   3
 -14   2  -6 9.43905 4.14481   3
 -14  -2   6 3.55029 4.02852   2
   6  14   2 5.94583 3.93326   1
  -6  14  -2 6.40645 3.54440   1
  -2  -6  14 4.40659 3.16647   2
  -2   6 -14 5.68579 3.06399   4
  -2  -6  14 3.19675 3.26132   1
   2   6  14 16.4049 6.45190   1
  14  -2  -6 8.28582 3.92510   4
   4  -6  14 1050.64 39.2979   1
  -6  14   4 1037.69 37.3300   2
  -6 -14  -4 1069.54 38.1428   3
 -14   4   6 992.316 38.7388   2
  -4  -6 -14 1041.28 31.6779   4
  -6  14   4 1035.33 36.4213   1
  14  -4   6 1028.62 32.5768   4
   6  14  -4 1004.87 36.4285   1
 -14  -4  -6 977.843 36.7589   3
   4   6 -14 1023.38 34.1263   4
   6 -14   4 1042.28 38.2516   2
  14   4  -6 1025.05 34.5778   4
  -4   6 -14 1082.74 34.2086   4
 -14  -4   6 972.574 35.6729   3
  -4  -6  14 1090.49 38.4634   2
   4   6  14 1082.28 40.2431   1
   6  14   4 1033.74 38.8048   1
  14  -4  -6 1037.21 39.1579   3
  14   4   6 1018.55 33.9009   4
   6 -14  -4 1027.78 38.0783   3
  -6 -14   4 1011.31 35.4208   2
 -14  -4   6 1018.27 36.6130   2
 -14   4  -6 980.657 31.7119   4
 -14   4  -6 1033.96 36.1963   3
  -6  14  -4 998.476 37.3271   1
   6   6 -14 5.20417 3.37620   4
  14   6  -6 4.37672 3.47694   4
  -6  14   6 -0.0702 2.54168   1
  -6  14   6 6.25057 3.72976   2
   6  -6  14 5.39180 3.46048   1
 -14   6   6 1.26391 2.81299   2
   6 -14   6 4.87451 4.39783   2
  -6 -14  -6 2.82518 3.58196   3
 -14  -6  -6 0.45912 2.62528   3
  -6   6  14 -0.3504 4.64285   2
  -6  -6 -14 9.67597 4.10345   4
   6   6  14 2.98847 3.87316   1
  -6 -14   6 4.20447 3.36094   2
  -6   6 -14 0.45988 1.98228   4
  14   6   6 3.44467 2.71684   4
   6 -14  -6 -1.7574 2.29519   3
 -14  -6   6 10.6338 4.74710   2
  -6  14  -6 2.85349 2.71374   1
  14  -6  -6 2.01657 2.64584   3
  -6  -6  14 14.3114 5.58960   2
   6  14   6 -4.7863 2.35172   1
 -14   8   6 19.1493 7.10804   2
   6 -14   8 16.8250 6.59552   2
  -8   6  14 25.9999 8.35574   2
 -14  -8  -6 11.4979 6.00541   3
   8   6 -14 12.5643 5.25747   4
  -6  14   8 16.2392 6.42288   2
  -6 -14  -8 17.2026 6.94235   3
  14   8  -6 19.9129 6.40010   4
   8  -6  14 17.7801 7.20208   1
  -8  -6 -14 16.6815 5.75453   4
   8   6  14 22.2162 7.87965   1
  -6 -14   8 22.0952 7.01588   2
  -8  -6  14 18.9462 6.81833   2
  -6  14  -8 23.7177 7.92299   1
  14   8   6 17.3834 5.44314   4
  -8   6 -14 20.5883 5.64473   4
   6 -14  -8 25.2397 8.00459   3
  14  -8  -6 20.2365 6.84000   3
   6  14   8 36.8003 9.48774   1
  -7 -14  -1 204.483 15.6128   3
  -1  -7 -14 214.288 15.2723   3
   7  14  -1 216.341 16.1821   1
  -7  14   1 195.617 16.0572   2
 -14  -1  -7 202.534 15.6526   3
  14   1  -7 225.181 16.9414   3
  -7  14   1 204.098 15.3672   1
  -1   7  14 230.979 17.1972   1
  14  -1   7 220.438 14.7319   4
   1  -7  14 210.790 15.4082   2
   1   7 -14 196.297 15.4410   1
   1   7 -14 192.169 14.2416   4
  14   1  -7 202.759 14.4919   4
   1  -7  14 196.370 15.7943   1
 -14   1   7 215.782 17.7560   2
   7 -14   1 197.595 16.0379   2
  -1   7 -14 201.369 14.2277   4
   1   7  14 203.985 16.5505   1
  14   1   7 214.303 14.7182   4
   1  -7 -14 234.112 15.8149   3
  -1  -7  14 200.228 15.5159   2
   7 -14  -1 214.347 16.0375   3
 -14  -1   7 204.796 15.9377   3
   7  14   1 212.317 16.5777   1
 -14  -1   7 190.906 16.0006   2
  -1  -7  14 202.494 15.3487   1
  -7  14  -1 225.796 16.4669   1
 -14   1  -7 208.848 15.5421   3
   7 -14  -1 193.888 15.6334   2
  14  -1  -7 207.835 16.4734   3
  14  -1  -7 208.554 13.9996   4
  -7  14   3 201.923 16.4844   2
   3   7 -14 208.537 14.8303   4
 -14   3   7 196.924 16.9364   2
  14   3  -7 200.796 14.8865   4
  -7 -14  -3 200.526 16.0783   3
  -7  14   3 177.943 14.4458   1
  14  -3   7 202.727 14.0621   4
  -3  -7 -14 186.587 14.3726   3
   3  -7  14 212.162 16.6950   1
 -14  -3  -7 219.709 16.4295   3
   7 -14   3 173.163 15.4797   2
 -14  -3   7 198.659 16.0272   2
  14  -3  -7 175.125 15.5317   3
  -3  -7  14 186.675 15.5601   2
  14   3   7 160.825 13.0826   4
   3  -7 -14 203.347 15.1816   3
  -7  14  -3 222.872 16.4437   1
  -3   7 -14 188.530 13.7619   4
 -14   3  -7 210.012 14.2260   4
 -14  -3   7 200.747 15.4874   3
   3   7  14 191.275 16.8158   1
 -14   3  -7 201.731 15.0914   3
   7  14   3 193.079 16.3197   1
   7 -14  -3 196.608 16.1364   3
   5  -7  14 176.186 15.8759   1
  -7 -14  -5 180.928 16.0554   3
   5   7 -14 165.620 13.4433   4
 -14   5   7 194.232 17.0563   2
  14  -5   7 168.546 12.9342   4
   7 -14   5 182.685 15.8746   2
  -7  14   5 206.612 16.6677   2
  -5  -7 -14 172.118 14.3088   3
  14   5  -7 163.829 14.0639   4
 -14  -5  -7 185.411 16.0080   3
  -7 -14   5 192.718 15.2799   2
   5   7  14 177.533 16.3023   1
  -5   7 -14 184.651 13.6598   4
 -14  -5   7 184.492 15.1869   2
  14   5   7 175.953 13.6307   4
  -5  -7  14 156.734 14.9494   2
   7  14   5 185.984 16.5838   1
   7 -14  -5 185.705 16.2599   3
  14  -5  -7 192.477 16.5007   3
 -14   5  -7 181.763 13.0912   4
  -7  14  -5 172.720 15.0549   1
   5  -7 -14 188.090 14.7594   3
 -14  -7  -7 258.861 19.6931   3
  14   7  -7 219.922 16.5051   4
 -14   7   7 271.658 20.5680   2
   7   7 -14 242.350 16.5770   4
  -7   7  14 252.774 19.8104   2
   7  -7  14 226.719 18.9352   1
   7 -14   7 252.168 18.8760   2
  -7  -7 -14 241.508 16.8950   4
  -7  14   7 251.679 18.7671   2
  -7 -14  -7 260.129 19.6809   3
  14  -7  -7 241.163 19.0521   3
  -7  14  -7 278.098 20.1099   1
   7   7  14 239.674 19.8037   1
  14   7   7 237.006 16.2066   4
   7  14   7 243.957 19.4678   1
  -7 -14   7 258.437 18.5778   2
  -7  -7  14 250.612 19.2810   2
   7  -7 -14 264.227 18.6461   3
  -7   7 -14 214.350 15.0903   4
 -14  -7   7 240.094 17.6792   2
   7 -14  -7 235.054 19.1637   3
  -9  -7 -14 78.4115 11.3535   4
  -7  14   9 81.7135 13.3076   2
 -14   0   8 15.7265 5.94446   3
  -8  14   0 32.3739 8.45430   2
  14   0  -8 29.7584 7.83339   3
   0   8 -14 22.1725 7.49872   1
 -14   0  -8 20.7315 6.24550   3
 -14   0   8 21.5362 7.53142   2
   0  -8  14 26.1474 7.06231   1
  14   0  -8 20.9827 5.84997   4
  14   0   8 23.7539 6.13001   4
   0  -8 -14 21.6747 6.57211   3
  -8  14   0 27.0510 6.67300   1
   0  -8  14 31.7843 8.00429   2
   8 -14   0 28.7021 7.57431   2
   0   8 -14 20.7047 5.84725   4
   0   8  14 20.0037 6.53604   1
   8  14   0 17.3464 6.80023   1
  -8 -14   0 43.4980 9.25234   3
  -8 -14  -2 13.5340 6.39501   3
  -2   8  14 -3.1155 1.99264   1
   2   8 -14 17.4765 6.40027   1
   2   8 -14 -1.1318 2.33390   4
   2  -8  14 2.61342 3.44999   1
  -2  -8 -14 3.51652 2.49871   3
 -14  -2  -8 6.38160 3.92254   3
  -8  14   2 1.84026 2.72848   1
  14   2  -8 -1.8067 2.42295   4
   8 -14   2 -0.9388 3.14070   2
  14  -2   8 4.47426 3.33440   4
  -8  14   2 16.5459 6.89220   2
 -14   2   8 3.08644 3.61391   2
   2  -8  14 1.92775 3.40465   2
  14  -2  -8 3.78870 3.20435   3
  -2  -8  14 43.3349 9.41297   1
 -14  -2   8 3.99777 3.59968   3
   2  -8 -14 6.63251 3.96682   3
  -2  -8  14 7.93710 4.55822   2
   8  14   2 8.07494 4.62690   1
  -2   8 -14 13.5607 5.12541   4
 -14   2  -8 2.48560 2.99577   4
  -8  14  -2 3.59737 3.37933   1
 -14  -2   8 1.70001 3.19814   2
  14  -2  -8 11.2955 5.17826   4
  14   2   8 28.1928 7.02718   4
  -2   8 -14 3.23386 4.10280   1
   2   8  14 1.31356 3.28457   1
   8 -14  -2 1.26193 3.34019   3
   8 -14   4 824.777 34.7568   2
  -4  -8 -14 836.077 33.0192   3
  -8 -14  -4 847.350 35.0793   3
 -14   4   8 845.761 37.1775   2
   4  -8  14 837.379 35.5926   1
   4   8 -14 800.714 31.0257   4
  -8  14   4 817.238 34.6757   2
  14   4  -8 852.809 32.2751   4
 -14  -4  -8 837.038 34.3927   3
  14  -4   8 846.144 30.5405   4
   8 -14  -4 837.448 35.5962   3
  -4  -8  14 829.679 34.9103   2
 -14  -4   8 820.884 34.1319   2
  -4   8 -14 816.071 30.2467   4
  14   4   8 820.378 31.0597   4
   8  14   4 842.355 35.6012   1
   4   8  14 869.833 37.4090   1
 -14   4  -8 823.478 29.8568   4
  -8  14  -4 868.438 34.7563   1
  14  -4  -8 862.801 35.6468   3
   4  -8 -14 774.788 32.1728   3
  -8 -14  -6 15.7821 6.59094   3
 -14  -6  -8 14.9726 6.34579   3
   6  -8  14 19.6813 6.80586   1
   8 -14   6 17.8098 6.23571   2
   6   8 -14 16.9248 6.03637   4
  -6  -8 -14 20.1019 6.44234   3
 -14   6   8 29.5511 8.85931   2
  -8  14   6 14.2707 6.26759   2
  14   6  -8 21.3860 6.83482   4
   6   8  14 31.1409 9.00327   1
  -8  14  -6 18.8934 6.50438   1
  -6  -8  14 19.1082 6.90423   2
   8  14   6 26.9094 8.27314   1
  -6   8 -14 14.4054 5.43042   4
   6  -8 -14 17.3829 6.01928   3
  14   6   8 11.1651 4.66935   4
  -8 -14   6 22.5936 6.72466   2
  14  -6  -8 17.5121 6.41800   3
 -14  -6   8 21.4819 6.91381   2
   8 -14  -6 20.1003 6.99833   3
  -8   8  14 -2.5941 4.12092   2
  -8  -8 -14 0.60344 2.90756   3
  -8   8 -14 2.56053 2.91582   4
 -14  -8   8 -2.6093 2.30341   2
   8  -8 -14 3.76119 3.19233   3
   1   9 -14 158.200 13.1833   4
 -14  -1  -9 148.008 12.8503   4
  -1  -9 -14 164.326 14.3487   3
  14   1  -9 139.546 12.6322   4
   9 -14   1 157.467 15.1998   2
   1  -9  14 171.385 15.3380   1
   1  -9  14 159.403 14.3792   2
  -1   9  14 178.025 15.5674   1
 -14   1   9 159.421 15.6715   2
 -14  -1  -9 161.572 14.1601   3
   1   9 -14 155.398 14.8880   1
  -9 -14  -1 170.552 15.1182   3
  -9  14   1 184.441 16.4120   2
  14  -1   9 173.513 13.7262   4
   1  -9 -14 163.239 14.2384   3
  -9  14  -1 163.514 15.3558   2
  14  -1  -9 151.944 12.6655   4
  -1   9 -14 142.440 14.7217   1
 -14  -1   9 134.777 14.2705   2
  14   1   9 163.831 13.4670   4
  -9  14  -1 188.216 14.9936   1
   1   9  14 165.019 15.4766   1
   9 -14  -1 156.908 14.5848   3
  -1  -9  14 171.724 15.4299   2
  14  -1  -9 162.494 14.7785   3
  -1   9 -14 164.763 13.4720   4
 -14   1  -9 171.292 13.5952   4
 -14   3   9 137.389 14.9873   2
  -9  14   3 153.170 15.0931   2
 -14  -3  -9 169.632 15.1289   3
   3   9 -14 185.422 14.4129   4
  14   3  -9 172.119 14.2684   4
   3  -9  14 158.202 14.1119   2
  -3  -9 -14 170.399 14.8625   3
   3  -9  14 161.202 15.2905   1
   9 -14   3 162.528 15.5357   2
  -9 -14  -3 183.661 16.2316   3
  -9  14  -3 180.065 15.1694   1
   3   9  14 157.536 15.6715   1
  14  -3  -9 164.400 15.3466   3
 -14  -3   9 153.933 15.1318   2
  -3   9 -14 153.990 15.6195   1
  -3   9 -14 177.221 13.6497   4
   3  -9 -14 181.833 15.1651   3
 -14   3  -9 174.786 13.6005   4
  -3  -9  14 174.516 15.9301   2
  14   3   9 182.624 14.3657   4
   9 -14  -3 159.429 15.4330   3
   9  14   3 160.228 15.0881   1
 -14  -5  -9 163.267 15.6037   3
   5  -9  14 166.830 18.3860   1
  -9 -14  -5 190.010 17.0373   3
  14   5  -9 172.265 20.0654   4
  -9  14   5 156.673 15.5550   2
  -5  -9 -14 180.731 15.6337   3
 -14   5   9 179.117 25.0026   2
   9 -14   5 179.816 16.4907   2
   5   9 -14 173.747 14.1716   4
  14  -5  -9 182.799 16.5335   3
   5   9  14 174.696 23.7972   1
  -9  14  -5 166.118 15.3093   1
  -5   9 -14 189.313 14.1773   4
   5  -9 -14 181.409 16.0494   3
   9  14   5 173.394 16.2633   1
   9 -14  -5 180.503 17.1207   3
  -5   9 -14 204.117 26.9890   1
  14   5   9 168.153 13.9825   4
 -14   5  -9 175.958 13.6297   4
  -5  -9  14 177.923 16.6777   2
 -14  -5   9 180.630 16.1266   2
  -7  -9 -14 76.3599 15.1689   3
   7  -9 -14 81.6754 18.7062   3
  -7   9 -14 80.6048 11.6240   4
  -9 -14   7 110.257 17.6454   2
  14   0  10 13.1941 5.18119   4
   0  10 -14 9.83705 5.23277   1
   0 -10 -14 17.5001 6.53508   3
 -10  14   0 24.0273 7.53704   2
 -14   0 -10 20.6890 6.18370   4
   0 -10  14 20.9767 7.08404   2
  14   0 -10 16.7515 5.84988   4
   0  10 -14 21.8294 6.42551   4
   0  10  14 11.4701 5.72061   1
 -14   0  10 12.5014 5.28372   2
   2 -10  14 2.90277 3.84734   2
 -10  14   2 -2.7640 2.66615   2
  -2  10  14 0.59816 2.96413   1
  10 -14   2 1.44687 3.49662   2
 -14  -2 -10 13.8856 6.42504   3
 -14   2  10 3.87886 4.12843   2
 -10 -14  -2 1.56671 3.71381   3
   2  10 -14 -1.0082 4.13806   1
   2  10 -14 2.69633 3.38032   4
 -14  -2 -10 0.16587 3.78466   4
  14   2 -10 2.31653 3.41129   4
  -2 -10 -14 6.77540 4.47251   3
  10 -14  -2 -3.0114 2.85703   3
 -10  14  -2 5.70462 4.34098   2
   2 -10 -14 6.48558 4.15935   3
  14  -2 -10 -0.6992 2.74533   3
 -14  -2  10 2.83887 3.72125   2
  -2 -10  14 3.27863 3.43481   2
  -2  10 -14 0.43671 2.93585   1
   2  10  14 0.25629 3.69575   1
 -14   2 -10 1.80351 2.75835   4
  -2  10 -14 2.90377 3.28129   4
  14   2  10 1.03762 3.50411   4
   4  10 -14 724.315 30.3788   4
 -10 -14  -4 694.942 38.4998   3
  -4 -10 -14 724.629 32.5914   3
 -14  -4 -10 719.062 32.6719   3
 -14   4 -10 742.881 29.3862   4
  14  -4 -10 718.749 33.1194   3
   4 -10 -14 688.466 31.9479   3
  10 -14  -4 674.404 37.0058   3
  -4  10 -14 713.991 28.5798   4
 -10  14  -4 696.796 31.8491   1
  10  14   6 9.20677 8.26443   1
 -14   6 -10 8.70249 4.77539   4
 -11 -14  -1 151.166 14.9928   3
  -1 -11 -14 156.768 21.8843   3
   1  11 -14 151.947 15.3386   1
   1  11 -14 134.854 12.6752   4
  -1  11  14 143.103 15.1463   1
  14   1 -11 137.779 17.1679   4
   1 -11  14 126.077 18.9934   2
  -1  11 -14 170.667 13.8923   4
   1 -11 -14 155.725 21.6978   3
  11 -14  -1 144.417 15.0893   3
   3 -11  14 82.2705 14.9116   2
  14  -3 -11 120.725 16.5815   3
   1   0  15 2.81865 2.69840   1
 -15  -1   0 5.04721 3.81803   3
 -15   1   0 1.36705 3.00809   3
  -1   0 -15 4.39994 2.79560   4
  -1   0  15 2.07559 2.47692   1
   0 -15  -1 2.29992 2.85586   2
   0 -15  -1 1.64582 2.18432   3
   0 -15   1 0.43397 1.97345   2
   0  15  -1 0.04343 2.60629   1
   0  15   1 3.45279 3.41706   1
   1   0 -15 1.94920 2.20275   4
  15   1   0 1.14351 2.34966   4
  15  -1   0 -0.6368 1.91788   4
   3   0  15 2.37633 3.55083   1
   3   0 -15 0.36431 2.05990   4
   0 -15  -3 2.15519 2.41070   3
  15  -3   0 -2.8369 2.56266   3
  15  -3   0 -1.1625 1.73451   4
  15   3   0 0.21156 2.26551   4
 -15   3   0 4.09802 3.31141   3
   0 -15   3 4.42276 3.14995   2
   0  15  -3 1.78330 2.83170   1
   0  15   3 4.51313 3.04044   1
   0 -15  -3 9.95885 4.74648   2
  -3   0 -15 4.81880 2.99829   4
 -15  -3   0 -0.2441 2.41337   3
   0 -15  -5 4.40014 3.64790   3
   0  15   5 -0.4158 2.46707   1
 -15  -5   0 1.18290 2.83112   3
 -15   5   0 1.33245 3.07778   3
  -5   0  15 -1.7816 2.21550   2
  -5   0 -15 0.77053 1.96648   4
   0  15  -5 -0.4925 2.55860   1
 -15   5   0 3.18473 2.85840   2
   5   0 -15 0.36430 2.51538   4
  15   5   0 0.19265 2.46375   4
  15  -5   0 -0.7694 2.67598   3
   0 -15   5 1.71904 2.73295   2
   5   0  15 -1.5193 1.83454   1
  15  -7   0 7.96432 4.98959   3
   0 -15   7 0.78086 2.63832   2
   0  15  -7 1.36641 3.28024   1
   0  15   7 1.85558 3.42905   1
  15   7   0 2.84961 3.15690   4
 -15  -7   0 1.62927 3.26836   3
 -15   7   0 1.97397 3.18712   2
  -7   0 -15 3.35203 3.08998   4
  -7   0  15 -2.2775 3.15803   2
   0 -15  -7 8.69379 4.42654   3
   7   0  15 -0.4449 3.37807   1
   7   0 -15 1.59555 2.93863   4
  -9   0  15 1.20893 3.91046   2
 -15   9   0 4.63883 3.88689   2
   9   0  15 12.3969 9.31808   1
  15  -9   0 -0.7094 3.41480   3
 -15  -9   0 4.15840 3.88914   3
  15   9   0 2.16236 3.34962   4
   0  15  -9 1.09189 2.72671   1
   0  15   9 -0.2252 3.31863   1
   9   0 -15 -1.1579 2.61979   4
 -15   0  -1 15.2545 5.76541   3
   1  15   0 4.17468 3.40987   1
 -15   0   1 0.49683 2.71295   3
  -1 -15   0 2.67975 3.00915   2
  -1  15   0 1.11798 2.27596   1
   0  -1  15 6.67173 3.73082   1
   0   1 -15 10.8860 4.11688   4
   0   1  15 1.87948 2.60376   1
   1 -15   0 3.91062 2.88954   2
   0  -1 -15 4.83354 2.94442   4
  15   0  -1 0.13481 2.30390   4
  15   0   1 1.48247 2.49370   4
  15  -2   1 297.244 16.1279   4
  -2   1  15 286.578 17.6555   1
 -15  -2  -1 288.167 19.4487   3
  15   2  -1 297.195 16.9097   4
 -15   2   1 267.644 18.6692   3
   2   1 -15 276.238 16.2412   4
   1 -15   2 276.824 18.1301   2
   1  15  -2 330.422 20.5270   1
  -1 -15  -2 313.885 18.6655   3
   2  -1  15 288.290 19.1348   1
  -1 -15  -2 278.318 18.0483   2
  -1  15   2 276.348 18.5153   1
  -2  -1 -15 299.930 16.5853   4
  -1  15  -2 287.454 19.1250   1
  -2  -1  15 310.146 18.4423   1
   1 -15  -2 304.108 18.2687   2
  15   2   1 306.712 17.1209   4
  15  -2  -1 311.378 20.6101   3
   1 -15  -2 324.410 19.1434   3
  -1 -15   2 291.737 18.2665   2
  -2   1 -15 293.270 16.6115   4
 -15   2  -1 289.836 19.5278   3
   1  15   2 284.972 19.3780   1
   2  -1 -15 297.610 16.5094   4
 -15  -2   1 301.876 19.8201   3
  15  -2  -1 275.233 15.4382   4
   2   1  15 302.507 19.6808   1
  15  -4   1 -3.7355 2.16925   3
  15  -4   1 0.74980 1.99800   4
  15   4  -1 1.79776 3.01945   4
  -1  15   4 2.05371 3.11376   2
   4   1 -15 0.07758 2.41147   4
  -4  -1 -15 4.29935 3.00822   4
   1  15  -4 -1.3136 1.92782   1
  -4   1  15 1.51981 2.53043   2
  -1 -15  -4 -1.2529 1.64796   3
 -15   4   1 6.05141 3.45686   3
 -15   4   1 1.72719 2.50683   2
 -15  -4  -1 0.69486 2.57017   3
   4  -1  15 1.93096 3.40253   1
  -1  15   4 10.7864 5.01299   1
   1 -15   4 4.38117 3.25164   2
   1 -15  -4 0.40167 2.56282   3
  15   4   1 1.73997 2.68041   4
  -4   1 -15 -0.4537 2.19025   4
  -1  15  -4 -2.5048 2.30957   1
 -15   4  -1 1.56956 2.62950   3
 -15  -4   1 6.59879 4.27335   3
  -4  -1  15 4.95521 2.88540   2
  15  -4  -1 -0.7076 3.20866   3
   4   1  15 1.83363 2.60866   1
  -1 -15   4 0.99812 2.39087   2
   4  -1 -15 3.82130 3.11477   4
   1  15   4 2.71922 2.66464   1
  -1 -15  -6 176.817 15.5421   3
   1 -15   6 189.433 15.6811   2
  -6  -1 -15 184.279 13.5677   4
  15   6  -1 176.443 13.8240   4
  -1  15   6 160.515 14.8021   1
   6   1 -15 155.967 12.9218   4
  -6   1  15 142.673 13.8701   2
 -15   6   1 179.256 15.0103   2
 -15  -6  -1 159.229 14.9242   3
  15  -6   1 163.708 15.6148   3
   6  -1  15 177.412 15.9177   1
   1  15  -6 168.805 15.4293   1
 -15   6  -1 189.045 15.9544   3
   1  15   6 170.358 15.4306   1
 -15  -6   1 174.212 15.3701   3
  -1 -15   6 182.861 15.3625   2
   1 -15  -6 172.675 15.4408   3
   6  -1 -15 164.221 12.9102   4
  -6  -1  15 166.361 14.7490   2
  -6   1 -15 186.945 13.9626   4
   6   1  15 162.853 15.3484   1
 -15   6  -1 168.281 17.4298   2
  15  -6  -1 185.592 16.6050   3
  -1  15  -6 171.848 15.8087   1
  15   6   1 158.210 12.8470   4
  -8   1  15 14.3799 6.21978   2
  -1 -15  -8 15.4541 6.15147   3
 -15   8   1 21.2562 6.99447   2
  -8  -1 -15 15.1551 5.51550   4
  15   8  -1 13.6397 5.52435   4
   8   1 -15 23.8948 6.67558   4
  -1  15   8 26.6975 8.06599   1
   8  -1  15 19.9229 7.18241   1
   1 -15   8 24.5222 7.63736   2
  15  -8   1 20.5282 7.25233   3
   1  15  -8 24.1268 7.50629   1
 -15  -8  -1 20.3773 7.00672   3
  15   8   1 12.1029 4.57536   4
   8   1  15 25.3217 8.59691   1
 -15   8  -1 21.5623 6.57972   2
   8  -1 -15 25.6382 6.76580   4
  -1 -15   8 12.9966 5.22711   2
  -8  -1  15 21.8290 6.93749   2
  -8   1 -15 18.0625 6.08507   4
  -1  15  -8 16.1070 6.26930   1
 -15  -8   1 19.7357 7.21673   3
   1  15   8 14.5798 6.21251   1
   1 -15  -8 14.3468 6.20139   3
  15  -8  -1 15.4933 6.71400   3
  15 -10   1 188.437 20.4439   3
  10  -1 -15 180.765 14.3213   4
  -2 -15  -1 299.635 17.7696   2
  -2 -15  -1 301.511 17.9542   3
  -1  -2 -15 307.544 16.6865   4
  15   1  -2 295.371 16.8823   4
   1  -2  15 277.535 18.5863   1
 -15  -1  -2 251.995 17.9704   3
  -1   2  15 323.657 19.2315   1
   2 -15   1 289.884 18.5772   2
   1   2 -15 290.281 16.8712   4
   2  15  -1 297.510 19.8075   1
  -2  15   1 308.468 19.6187   1
 -15   1   2 299.034 19.7640   3
  15  -1   2 296.350 16.3547   4
 -15   1   2 316.761 19.2283   2
 -15  -1   2 303.295 19.6730   3
  -1  -2  15 303.339 18.5977   1
  15   1   2 285.802 16.4942   4
   2 -15  -1 291.568 17.8827   3
   2  15   1 277.967 19.2333   1
  -2  15  -1 260.944 17.9426   1
  -2 -15   1 268.341 17.1572   2
   1   2  15 281.518 18.7389   1
  15  -1  -2 314.487 16.6220   4
 -15   1  -2 274.013 18.5928   3
   1  -2 -15 295.790 16.2087   4
   2 -15  -1 319.316 19.1271   2
  -1   2 -15 300.713 16.9783   4
   3   2 -15 359.506 19.1149   4
  -3  -2 -15 348.745 17.9314   4
 -15   3   2 340.758 20.2695   2
 -15   3   2 348.153 21.4223   3
 -15  -3  -2 346.382 21.0627   3
   3  -2  15 332.847 21.0780   1
  15  -3   2 336.345 17.1384   4
  -2  15   3 339.639 20.7733   1
  15   3  -2 344.433 18.7710   4
   2 -15   3 352.113 20.9169   2
  -2 -15  -3 342.261 20.1845   3
   2  15  -3 353.650 21.2531   1
   2  15   3 303.647 20.4872   1
  15  -3  -2 330.393 16.7905   4
   2 -15  -3 358.412 20.0542   2
   2 -15  -3 326.454 19.9410   3
 -15   3  -2 316.314 20.5792   3
 -15  -3   2 341.696 21.0976   3
  15  -3  -2 359.568 22.5950   3
   3  -2 -15 331.849 17.6283   4
  -3   2 -15 336.931 18.3172   4
  -2  15  -3 366.494 21.7983   1
  -2 -15   3 347.361 20.0629   2
  -3  -2  15 368.726 19.9821   2
  15   3   2 336.528 18.2830   4
   3   2  15 370.233 22.1974   1
   2  15  -5 214.392 17.1698   1
   5   2 -15 181.783 13.8076   4
  -5  -2 -15 185.734 13.4351   4
   5  -2  15 197.365 16.5552   1
 -15   5   2 176.538 14.7597   2
  15   5  -2 173.577 13.7985   4
  -5   2  15 198.320 15.3960   2
  15  -5   2 194.267 16.4570   3
  -2 -15  -5 203.433 16.3775   3
   2 -15   5 177.189 15.1145   2
  -2  15   5 184.100 15.4701   1
 -15  -5  -2 184.528 16.0468   3
   2 -15  -5 199.953 16.2462   3
   5   2  15 205.683 16.9111   1
  15  -5  -2 180.557 16.5441   3
  -5  -2  15 175.832 14.7781   2
   2  15   5 174.573 16.0335   1
   5  -2 -15 186.905 13.3369   4
  15   5   2 201.292 14.1700   4
  -2  15  -5 179.644 15.7509   1
 -15  -5   2 185.893 15.7364   3
  -2 -15   5 190.646 15.3472   2
  -5   2 -15 197.151 14.1726   4
 -15   5  -2 192.507 15.8663   3
   2  15  -7 197.885 16.8468   1
  -7  -2 -15 243.752 15.7396   4
   7   2 -15 222.225 15.5863   4
 -15   7   2 230.952 17.6261   2
   7  -2  15 200.716 17.5093   1
  -7   2  15 217.837 17.3894   2
  -2 -15  -7 213.762 17.2990   3
  -2  15   7 203.531 16.7007   1
 -15  -7  -2 225.332 17.7114   3
  15   7  -2 235.778 16.3446   4
   2 -15   7 212.067 17.0628   2
  15  -7   2 231.810 18.3619   3
  -2 -15   7 210.750 17.1601   2
  -7  -2  15 206.464 16.9189   2
 -15   7  -2 232.855 17.7573   3
   7  -2 -15 250.805 15.5754   4
 -15  -7   2 231.341 17.7929   3
   2 -15  -7 203.816 17.1041   3
   2  15   7 210.958 17.6444   1
  15  -7  -2 228.331 18.9584   3
   7   2  15 266.870 20.5665   1
  15   7   2 226.779 15.5449   4
  -7   2 -15 199.492 14.5723   4
  -2  15  -7 181.005 16.2484   1
  -2  15   9 125.640 13.9179   1
  15   9  -2 156.431 24.1810   4
 -15   9   2 125.007 13.5220   2
   9   2 -15 166.134 19.5522   4
  15  -9   2 149.024 15.0472   3
  -9   2  15 122.475 16.7689   2
   2  15  -9 120.655 16.5447   1
  15   9   2 134.406 12.4239   4
 -15  -9   2 118.178 16.1913   3
 -15   9  -2 138.770 14.0318   2
 -15   9  -2 141.532 14.3542   3
  -3  15   0 0.72752 2.10791   1
   3 -15   0 2.67258 3.17627   2
   0  -3 -15 4.14577 2.41647   4
 -15   0   3 11.3754 4.96204   2
  15   0  -3 1.47025 2.61752   4
  15   0   3 2.70775 2.75779   4
   0   3  15 0.02765 2.43101   1
   0   3 -15 2.90836 2.73448   4
   0  -3  15 1.00988 2.97279   1
 -15   0   3 2.16708 3.10634   3
   3  15   0 1.73363 3.29642   1
  -3 -15   0 8.37976 3.89571   2
 -15   0  -3 2.35992 3.15421   3
  15   2  -3 327.508 18.1189   4
  -3 -15  -2 367.535 20.5535   3
 -15  -2  -3 337.050 20.7799   3
 -15   2   3 350.622 21.0745   2
   3 -15   2 331.651 20.3114   2
  -2  -3 -15 351.542 17.9143   4
   2  -3  15 360.887 21.6867   1
  -2   3  15 366.602 20.5916   1
 -15   2   3 334.540 21.0497   3
  -3  15   2 345.894 20.8506   1
  15  -2   3 340.653 17.6960   4
   2   3 -15 327.658 18.5208   4
   3  15  -2 355.663 21.5766   1
   3  15   2 365.947 22.2509   1
  15  -2  -3 374.077 18.2230   4
  -2  -3  15 334.701 19.7598   1
   2   3  15 390.982 22.6364   1
   3 -15  -2 360.732 20.8933   2
  -3  15  -2 375.575 21.7890   1
  15  -2  -3 367.942 22.3191   3
  15   2   3 328.919 18.1041   4
  -2   3 -15 373.773 19.3378   4
   3 -15  -2 328.927 19.6267   3
 -15   2  -3 363.166 21.5148   3
   2  -3 -15 354.196 17.6305   4
  -3 -15   2 351.320 19.8149   2
  -2  -3  15 329.135 19.1121   2
 -15  -2   3 340.930 21.1032   3
   4  -3  15 1.72941 2.88477   1
   4   3 -15 -0.7211 2.64491   4
 -15  -4  -3 0.07744 2.48393   3
  -3  15   4 3.07659 3.53045   2
   3  15  -4 6.54037 4.01576   1
  -4  -3 -15 -2.3159 1.67053   4
   3 -15   4 2.00189 2.66858   2
  -3  15   4 4.28724 3.08621   1
  15  -4   3 6.59121 3.10049   4
  15   4  -3 4.21493 3.41606   4
  -3 -15  -4 4.27281 3.62254   3
 -15   4   3 9.57621 4.31842   2
   3  15   4 0.41582 3.49958   1
   3 -15  -4 4.99778 3.75334   3
   4  -3 -15 6.37989 3.41571   4
 -15  -4   3 3.80812 3.49736   3
  15   4   3 8.35359 4.03001   4
  -4  -3  15 1.07160 2.58296   2
   4   3  15 0.32818 2.75802   1
  15  -4  -3 0.76064 2.63806   3
  -4   3 -15 4.66389 2.98577   4
  -3 -15   4 2.13449 2.69637   2
   3 -15  -4 5.29950 3.53772   2
  -3  15  -4 1.55151 2.21890   1
 -15   4  -3 3.53739 3.34296   3
   3 -15   6 212.500 16.9411   2
  15   6  -3 218.430 15.4441   4
  -6   3  15 201.402 16.0754   2
  -3 -15  -6 211.191 17.1810   3
  -6  -3 -15 225.366 15.0102   4
   3  15  -6 237.778 18.0461   1
  -3  15   6 221.801 17.0848   1
 -15   6   3 214.696 16.9607   2
   6  -3  15 188.650 16.8025   1
 -15  -6  -3 229.656 17.9359   3
   6   3 -15 194.640 14.7249   4
   6   3  15 191.491 16.7932   1
  15   6   3 219.592 15.2617   4
  -3  15  -6 215.524 17.3868   1
   3  15   6 210.109 17.7294   1
  -6   3 -15 222.508 15.2611   4
   3 -15  -6 193.519 16.5273   3
  15  -6  -3 206.586 18.0196   3
  -6  -3  15 175.338 15.4107   2
  -3 -15   6 212.917 16.7356   2
 -15   6  -3 213.776 16.7437   3
 -15  -6   3 213.219 16.7985   3
 -15  -8  -3 2.76545 3.98785   3
  -8  -3 -15 2.69031 2.72137   4
   3 -15   8 3.21256 3.58223   2
  -8   3  15 2.95797 4.28556   2
   3  15  -8 6.00040 3.90379   1
  -3 -15  -8 1.29733 4.10941   3
 -15   8   3 0.17848 2.75579   2
  15  -8   3 10.9611 6.00480   3
   8  -3  15 0.28073 3.53814   1
   8   3 -15 -0.6144 3.16033   4
  -3  15   8 -3.4223 2.39101   1
  15   8  -3 2.39789 3.20406   4
  -3 -15   8 25.2764 7.77820   2
 -15   8  -3 7.47468 4.82080   3
  -8  -3  15 1.47817 3.43350   2
   3  15   8 3.38801 3.58053   1
   8   3  15 6.91072 5.05946   1
 -15  -8   3 3.98428 3.69019   3
  15   8   3 3.19384 3.21835   4
  -3  15  -8 -1.4669 2.36089   1
  -8   3 -15 2.43376 3.08083   4
   3 -15  -8 6.19831 4.40016   3
  15  -8  -3 3.14447 4.20747   3
  -1  -4 -15 -1.5876 1.78820   4
  -1   4  15 -0.7274 2.48006   1
   1   4 -15 0.28596 3.07102   4
  -4 -15  -1 6.86069 3.44217   3
 -15   1   4 2.28123 3.21789   2
   4 -15   1 1.81000 3.59236   2
 -15  -1  -4 -0.8379 2.35550   3
  15   1  -4 0.11259 2.46561   4
   4  15  -1 1.60542 3.29468   1
  -4  15   1 3.45608 2.90143   1
   1  -4  15 -0.3647 2.24951   1
  15  -1   4 -0.6573 2.01593   4
 -15   1   4 0.24064 3.14659   3
 -15  -1   4 0.87057 2.82822   2
  15  -1  -4 0.61805 2.55735   4
  -4 -15   1 0.96573 2.26352   2
   4  15   1 4.30355 3.86643   1
   4 -15  -1 1.32709 2.46693   3
 -15   1  -4 1.10107 2.70645   3
  15  -1  -4 3.80667 3.58991   3
  -1  -4  15 20.1746 6.51995   1
  15   1   4 4.28556 2.82264   4
   1   4  15 -1.3346 2.15634   1
   1  -4 -15 2.38469 2.47265   4
 -15  -1   4 2.48441 3.42710   3
  -1   4 -15 1.52522 2.32200   4
  -1  -4  15 0.85495 2.13300   2
  -4  15  -1 0.61627 1.93143   1
   4 -15  -1 -0.0640 2.82970   2
  -4 -15  -3 6.11678 3.85573   3
   4  15  -3 26.0586 7.21585   1
  -4  15   3 5.46913 3.73921   1
  -4  15   3 3.21721 3.15309   2
 -15   3   4 1.85206 3.20492   2
   4 -15   3 1.42709 2.67180   2
   3  -4  15 4.90167 3.68479   1
 -15  -3  -4 4.93117 3.12696   3
  -3  -4 -15 -0.2921 1.91981   4
  15  -3   4 1.20354 2.48338   4
   3   4 -15 0.81975 3.10343   4
  15   3  -4 1.74982 2.99328   4
  -3  -4  15 5.16656 3.32045   2
 -15   3  -4 1.91232 2.95044   3
   3   4  15 1.01952 2.36686   1
 -15  -3   4 1.95505 3.14027   3
  15   3   4 3.61848 2.83480   4
  15  -3  -4 8.20300 4.38218   3
   4  15   3 4.63661 4.21869   1
  -4 -15   3 2.77703 2.74167   2
  -4  15  -3 2.75062 2.46889   1
   4 -15  -3 -2.9463 1.89334   3
   4 -15  -3 3.13943 3.14635   2
  -3   4 -15 1.62928 2.33492   4
  15   5  -4 2.33520 3.38815   4
  -4 -15  -5 9.89723 5.14267   3
 -15   5   4 6.80509 3.98356   2
  -4  15   5 6.49717 4.22860   1
  -5  -4 -15 4.12959 3.17087   4
  -4  15   5 5.77377 4.04407   2
   4 -15   5 3.27922 3.28333   2
   4  15  -5 9.27069 4.82446   1
   5  -4  15 7.47379 4.61489   1
   5   4 -15 6.16210 4.47240   4
 -15  -5  -4 5.57828 3.81164   3
  15  -5  -4 2.81073 3.64452   3
  -4  15  -5 10.0071 4.76523   1
  15   5   4 10.7128 4.19711   4
  -4 -15   5 7.31021 3.66169   2
   4  15   5 5.07517 4.64441   1
   4 -15  -5 7.53282 4.88387   3
 -15   5  -4 4.99646 3.64587   3
  -5  -4  15 5.63799 3.76107   2
 -15  -5   4 3.13359 3.36452   3
   5   4  15 5.09324 3.48315   1
  -5   4 -15 5.28997 3.18455   4
   7   4 -15 -4.6956 2.03324   4
   7  -4  15 -1.2747 3.07806   1
  -7   4  15 2.82380 4.12239   2
  -4 -15  -7 1.80988 3.20898   3
  15   7  -4 2.74046 3.60256   4
  -7  -4 -15 -2.4401 2.33376   4
 -15  -7  -4 6.86832 4.74867   3
   4  15  -7 4.14498 3.78540   1
  -4  15   7 6.59861 4.37684   1
   4 -15   7 0.61397 3.32614   2
 -15   7   4 1.84180 2.90738   2
 -15   7  -4 3.55371 3.70461   3
  -4 -15   7 5.38557 3.58115   2
  -4  15  -7 1.91285 3.37615   1
   4 -15  -7 0.35416 3.35920   3
  15   7   4 -0.8812 2.51883   4
   4  15   7 3.71805 3.75630   1
  -7  -4  15 -0.0544 2.80361   2
   7   4  15 2.15213 3.83059   1
 -15  -7   4 0.88814 3.24995   3
  15  -7  -4 0.53907 3.63172   3
  -7   4 -15 2.09461 2.65981   4
  -4  15   9 7.23453 4.22224   1
   0  -5  15 -2.1091 2.62312   1
 -15   0   5 0.58502 2.96691   3
   5  15   0 4.35471 4.15650   1
   5 -15   0 2.47247 3.20699   2
  15   0  -5 -1.7742 2.80001   3
  -5  15   0 3.25859 2.20320   1
 -15   0   5 7.44292 4.38848   2
 -15   0  -5 0.20296 2.83815   3
   0   5  15 3.28996 3.15927   1
   0   5 -15 0.89587 2.59817   4
  15   0   5 6.09499 3.47868   4
  15   0  -5 0.28897 2.74114   4
 -15  -2  -5 179.469 15.1499   3
  -5  15   2 185.484 15.6934   2
  -2  -5 -15 184.929 12.6688   4
  15   2  -5 204.163 14.8470   4
 -15   2   5 202.327 16.6232   3
   2   5 -15 183.026 14.0819   4
   5 -15   2 205.687 16.2893   2
 -15   2   5 186.287 16.1723   2
  -2   5  15 197.524 15.5113   1
   2  -5  15 197.629 16.1934   1
  -5  15   2 184.687 15.1446   1
  15  -2   5 194.969 13.8385   4
   5  15  -2 189.912 15.9545   1
  -5 -15  -2 180.250 14.9140   3
  15   2   5 194.289 14.2032   4
   5  15   2 181.569 16.2072   1
  15  -2  -5 178.064 15.8062   3
 -15   2  -5 194.291 15.6766   3
   5 -15  -2 181.163 15.4488   2
  -5 -15   2 169.028 13.9324   2
  -5  15  -2 180.925 15.3526   1
  -2   5 -15 178.996 13.5708   4
 -15  -2   5 185.874 15.4206   2
   5 -15  -2 211.008 16.2694   3
  -2  -5  15 186.801 14.8117   2
 -15  -2   5 195.306 16.0636   3
   2   5  15 212.278 16.9493   1
  15  -2  -5 191.472 13.0841   4
  -5 -15  -4 1.39224 2.93759   3
 -15  -4  -5 2.82117 3.59485   3
  -4  -5 -15 8.41565 3.43236   4
 -15   4   5 7.45408 4.17392   2
  -5  15   4 7.59134 4.67089   2
   5 -15   4 8.08444 3.78656   2
   5  15  -4 3.46919 3.51183   1
  15   4  -5 9.60616 4.86882   4
   4  -5  15 6.41377 4.36249   1
   4   5 -15 5.22312 3.76702   4
  15  -4   5 8.28218 3.69568   4
  -5  15   4 6.49296 3.77615   1
  -4  -5  15 2.32528 3.15810   2
   5  15   4 5.44388 5.00343   1
 -15   4  -5 11.0411 5.18074   3
  -5  15  -4 4.89607 3.31840   1
   4   5  15 5.34790 3.48653   1
  15  -4  -5 5.93147 4.25319   3
 -15  -4   5 3.47322 4.56860   3
   5 -15  -4 3.05713 3.75052   3
  -4   5 -15 13.7284 4.79017   4
 -15  -4   5 6.22014 4.42853   2
  -5 -15   4 6.09040 3.67057   2
  15   4   5 3.93340 2.99989   4
 -15   6   5 157.398 15.3016   2
  -6  -5 -15 176.472 13.3250   4
   6  -5  15 132.704 14.3676   1
   6   5 -15 150.767 13.3979   4
 -15  -6  -5 176.689 16.1544   3
  -5  15   6 176.818 15.2604   1
  15   6  -5 173.175 14.4584   4
   5  15  -6 172.534 15.3574   1
   5 -15   6 174.339 15.8174   2
  -5  15   6 165.972 14.9156   2
  -5 -15  -6 169.201 15.7991   3
   5 -15  -6 190.004 16.5648   3
  15   6   5 180.331 13.8884   4
  -5  15  -6 176.814 16.2688   1
  15  -6  -5 185.953 16.6661   3
   6   5  15 153.062 15.7221   1
   5  15   6 175.025 16.6063   1
  -6  -5  15 172.076 15.8200   2
  -6   5 -15 196.302 14.3882   4
 -15  -6   5 173.984 15.1460   3
  -5 -15   6 175.169 15.2359   2
 -15   6  -5 167.913 18.3077   3
  -5  15   8 3.28280 3.71643   1
  -8  -5 -15 2.33707 2.93674   4
  -8   5  15 5.81916 5.13242   2
   1  -6  15 187.042 15.6915   1
 -15   1   6 168.639 15.1771   3
  -1   6  15 176.952 15.2068   1
   6  15  -1 157.772 14.6047   1
 -15   1   6 178.817 16.4005   2
 -15  -1  -6 172.651 14.8463   3
   6 -15   1 187.018 15.8978   2
   1   6 -15 179.258 14.0794   4
  -6 -15  -1 192.284 15.0185   3
  -6  15   1 165.162 15.0539   2
  15  -1   6 170.342 13.2997   4
  15   1  -6 187.016 14.1011   4
  -6  15   1 173.361 14.6065   1
 -15   1  -6 161.270 14.1080   3
   6 -15  -1 169.835 14.6567   3
  15   1   6 174.956 13.6714   4
   6  15   1 188.587 16.4645   1
 -15  -1   6 193.849 16.1539   2
 -15  -1   6 170.954 15.1279   3
   6 -15  -1 180.859 15.6954   2
  15  -1  -6 167.076 13.0282   4
  -1   6 -15 159.353 12.9847   4
   1   6  15 169.061 15.3184   1
  -6  15  -1 177.710 14.8793   1
  -1  -6  15 176.200 14.8828   2
  -1  -6  15 183.337 14.8883   1
  15  -1  -6 173.640 15.5962   3
 -15  -3  -6 213.489 16.7547   3
  15  -3   6 209.004 14.5637   4
  -6  15   3 203.466 15.6602   1
 -15   3   6 204.516 17.5995   2
  -6  15   3 224.482 17.6350   2
   3   6 -15 238.750 16.2685   4
  15   3  -6 212.344 15.5231   4
   3  -6  15 233.725 18.0108   1
  -6 -15  -3 186.453 15.7586   3
   6  15  -3 227.630 17.4623   1
   6 -15   3 208.139 16.8500   2
   6 -15  -3 213.728 17.1582   2
 -15   3  -6 211.896 16.4419   3
  -3  -6  15 206.185 16.3399   2
   3   6  15 212.214 17.5352   1
   6  15   3 205.676 17.6304   1
  -6  15  -3 246.387 18.1475   1
  -3   6 -15 224.430 15.3620   4
  15   3   6 212.890 14.9952   4
 -15  -3   6 226.362 17.1282   2
  -6 -15   3 212.212 18.2127   2
   6 -15  -3 216.943 17.0198   3
 -15  -3   6 216.601 16.9480   3
  15  -3  -6 223.023 17.8664   3
  15  -5   6 166.992 12.9918   4
   5  -6  15 158.252 15.6427   1
 -15  -5  -6 171.667 15.7665   3
  -5  -6 -15 153.881 12.2157   4
 -15   5   6 169.685 16.2871   2
  -6  15   5 175.550 15.5318   2
   6 -15   5 150.951 14.9575   2
  -6  15   5 207.325 15.9618   1
  15   5  -6 187.399 15.0044   4
   5   6 -15 151.646 13.3763   4
  -6 -15  -5 179.648 16.1147   3
 -15   5  -6 187.256 16.5353   4
  15   5   6 172.963 13.8350   4
  -6  15  -5 159.446 15.3269   1
   5   6  15 154.771 15.6865   1
 -15  -5   6 151.101 13.8710   2
  -5  -6  15 172.864 15.6107   2
   6 -15  -5 170.051 15.7761   3
   6  15   5 141.831 14.7890   1
  -5   6 -15 181.616 13.9605   4
  15  -5  -6 180.407 16.5327   3
  -6 -15   5 165.536 14.5052   2
 -15  -5   6 178.719 15.3321   3
  -7  -6 -15 200.354 14.4280   4
  -6  15   7 182.487 16.0174   2
  -6 -15   7 189.328 16.4945   2
  -7   6 -15 194.115 16.0605   4
   0  -7  15 -2.9956 2.25989   2
 -15   0   7 6.51599 4.17520   2
 -15   0   7 -1.0942 2.94681   3
   0  -7  15 -0.7069 2.33284   1
 -15   0  -7 22.0664 6.87215   3
   7 -15   0 0.64010 3.13956   2
   7  15   0 5.78560 5.34296   1
  15   0  -7 5.53558 3.78720   3
   0   7 -15 1.71783 2.64178   4
   0   7  15 0.44557 2.73015   1
  -7  15   0 4.33990 2.69218   1
  -7  15   0 3.11456 3.84798   2
  15   0   7 7.06079 3.52810   4
  15   0  -7 -1.3019 2.41526   4
  -7  15   2 223.727 16.6822   1
  15   2  -7 202.278 15.3097   4
   7 -15   2 227.639 18.0727   2
  -2   7  15 219.874 17.0658   1
   7  15  -2 231.338 17.8057   1
  15  -2   7 207.291 14.9025   4
   2   7 -15 243.110 16.6981   4
 -15   2   7 243.629 19.2762   2
   2  -7  15 213.825 17.2609   1
 -15  -2  -7 238.118 17.6176   3
  -7 -15  -2 217.907 17.0404   3
  -7  15   2 229.925 18.2909   2
  -2  -7  15 232.349 17.6728   2
  -7  15  -2 226.613 17.3794   1
 -15  -2   7 222.889 17.7087   2
  15  -2  -7 218.734 17.6898   3
   7  15   2 222.918 18.2228   1
   2   7  15 247.809 19.0802   1
 -15   2  -7 218.814 16.4237   3
   7 -15  -2 216.331 17.4218   2
   7 -15  -2 221.949 17.6017   3
  15   2   7 209.087 15.3289   4
  -2   7 -15 235.954 15.9105   4
 -15  -2   7 220.032 17.2792   3
 -15  -4  -7 15.2072 6.22975   3
  15   4  -7 9.43259 4.92334   4
  -7 -15  -4 0.14361 3.60354   3
 -15   4   7 0.39838 3.06784   2
   4  -7  15 -0.0943 2.54009   1
  15  -4   7 1.81732 3.05421   4
  -7  15   4 -0.0478 2.43330   1
   7 -15   4 3.53492 4.26496   2
   4   7 -15 -0.8299 2.58573   4
  -7  15   4 3.46873 3.65408   2
   4   7  15 6.45492 4.56479   1
 -15   4  -7 2.17137 2.85751   4
  15  -4  -7 1.86975 3.26464   3
  -4   7 -15 6.08524 2.89786   4
  15   4   7 1.65833 3.09855   4
  -4  -7  15 2.98349 3.19137   2
  -7  15  -4 3.03633 2.99310   1
 -15  -4   7 2.24523 3.06287   2
   7  15   4 4.78587 4.54659   1
   7 -15  -4 -1.2946 3.07656   3
  -7  15   6 178.238 16.2327   2
   7  15   6 201.021 18.3925   1
   7 -15  -6 245.420 35.0331   3
  -7 -15   6 195.318 16.4518   2
  -7  15  -6 210.857 31.5048   1
 -15  -6   7 217.026 17.1819   2
  -6   7 -15 198.239 14.9005   4
  -1   8  15 14.6556 6.14691   1
   8 -15   1 15.1611 6.22848   2
  15  -1   8 21.2650 6.02254   4
 -15   1   8 16.0919 6.62231   2
   1  -8  15 25.7165 7.45082   2
  -8 -15  -1 14.8049 6.24390   3
 -15   1   8 22.9723 7.67607   3
   1   8 -15 22.9304 7.62816   1
   1   8 -15 22.0656 6.60457   4
   1  -8  15 19.4200 6.19591   1
 -15  -1  -8 15.7079 5.77446   3
  -8  15   1 14.2930 6.35025   2
  15   1  -8 18.6831 6.09875   4
  -8  15   1 12.7833 4.26534   1
  -1   8 -15 8.95025 4.68399   4
   8  15   1 19.6647 7.47457   1
 -15  -1   8 18.3331 6.97706   2
 -15   1  -8 22.1237 6.47907   4
 -15   1  -8 11.9072 5.36235   3
  15   1   8 23.4461 6.53718   4
  -1  -8  15 18.1681 6.67396   2
  -1   8 -15 21.5676 7.42295   1
  15  -1  -8 15.4065 5.60500   4
   8 -15  -1 25.7936 7.58406   2
  -8  15  -1 17.0889 6.63413   2
   1   8  15 21.6306 7.34906   1
 -15  -1   8 18.4760 6.73753   3
  -1  -8  15 19.8741 6.02749   1
  -8  15  -1 18.1531 6.00355   1
  15  -1  -8 21.2497 7.47754   3
   8 -15  -1 19.2733 8.01376   3
   8 -15   3 3.49510 4.02647   2
 -15  -3  -8 1.58481 2.95752   3
   3  -8  15 1.17496 2.53272   1
   3   8 -15 5.09099 3.87453   4
  15   3  -8 5.93067 4.43039   4
  15  -3   8 4.10665 3.43676   4
 -15   3   8 1.02416 3.34939   2
  -8 -15  -3 -0.6187 2.90815   3
  -8  15   3 5.07802 4.92964   2
  15   3   8 3.99873 3.13383   4
  15  -3  -8 2.95722 3.50641   3
  -3   8 -15 7.28884 3.82937   4
 -15  -3   8 3.37549 3.27751   2
   8 -15  -3 6.81211 4.33978   3
  -8  15  -3 4.48937 4.07596   1
   8  15   3 14.1957 6.59865   1
  -3  -8  15 0.47065 3.75081   2
  -3   8 -15 -0.4037 2.67841   1
   3   8  15 2.37344 4.02426   1
 -15   3  -8 -0.1208 2.74826   4
   8  15   5 5.96298 4.04696   1
 -15   5  -8 1.94499 2.90324   4
  -8  15  -5 8.41480 6.06339   1
 -15  -5   8 3.13390 3.30812   2
  -5   8 -15 5.33428 3.32738   4
  15   0  -9 2.80097 3.43226   4
  15   0  -9 7.31301 4.83596   3
   0  -9 -15 8.16355 4.31523   3
 -15   0   9 4.38153 3.92197   2
 -15   0   9 9.57659 5.35091   3
   0  -9  15 3.37500 3.81117   1
   0   9  15 -0.1087 3.79082   1
   0   9 -15 2.48273 3.33169   1
   0   9 -15 6.46009 4.00203   4
   0  -9  15 6.19470 4.50359   2
  15   2  -9 137.943 13.3202   4
  -2   9  15 159.246 15.7118   1
  15  -2   9 124.887 16.8593   4
  -9 -15  -2 146.525 14.5452   3
 -15  -2  -9 118.292 13.1306   3
   2   9 -15 130.559 15.8938   4
  -2  -9 -15 137.949 13.7926   3
   2  -9  15 129.623 14.0187   1
  -9  15  -2 130.291 13.8297   1
 -15   2  -9 134.837 17.2485   4
  -2  -9  15 134.985 14.3636   2
  -2   9 -15 160.264 22.5669   1
  -2   9 -15 148.423 12.9436   4
  15  -2  -9 132.232 14.1124   3
   2  -9 -15 134.051 13.4629   3
   9 -15  -2 147.266 14.7885   3
 -15  -2   9 103.701 15.7562   2
   2   9  15 117.907 19.9140   1
  -4  -9 -15 8.25807 4.38632   3
  -4   9 -15 5.68965 3.67791   4
   4  -9 -15 9.60719 4.44275   3
 -15   4  -9 3.88279 3.46332   4
  -9  15  -4 1.28767 4.10781   1
   9  15   4 0.84668 3.92273   1
 -15   1  10 221.921 32.4487   3
  -1 -10 -15 176.189 16.3199   3
  -1  10  15 188.613 24.6115   1
 -10 -15  -1 213.741 30.8697   3
   1 -10  15 196.884 20.1432   2
   1  10 -15 179.552 16.4129   1
   1 -10 -15 176.554 17.2179   3
 -16   0   0 3411.85 79.9894   3
   0 -16   0 3423.23 76.0692   2
   0   0 -16 3424.56 71.8226   4
   0   0  16 3486.24 78.5811   1
   0  16   0 3519.38 81.0205   1
  16   0   0 3410.88 71.1081   4
   2   0 -16 51.1359 8.51353   4
   2   0  16 21.9764 6.71069   1
  16  -2   0 26.6936 6.32315   4
  16   2   0 24.4428 6.69762   4
   0 -16   2 25.0904 6.84033   2
   0  16  -2 22.6589 7.49600   1
   0  16   2 23.5124 6.99935   1
 -16  -2   0 13.4656 6.39635   3
 -16   2   0 22.4636 7.27305   3
  -2   0 -16 18.4475 5.69084   4
   0 -16  -2 16.2505 5.96660   2
   0 -16  -2 21.7541 6.32531   3
  16   4   0 954.786 33.4318   4
   0  16  -4 930.727 37.6387   1
 -16   4   0 903.143 37.2015   3
   0  16   4 923.120 37.3837   1
   4   0 -16 884.692 31.8186   4
   4   0  16 923.059 37.9119   1
  16  -4   0 898.952 37.7066   3
   0 -16  -4 916.095 35.8715   3
 -16  -4   0 920.848 37.1207   3
   0 -16   4 935.308 36.4341   2
  -4   0 -16 925.605 32.5209   4
   6   0  16 7.25881 4.48290   1
 -16   6   0 0.44122 2.90867   3
 -16  -6   0 -0.7868 3.23722   3
  16   6   0 2.08912 3.06342   4
   6   0 -16 1.54517 3.29376   4
   0  16  -6 21.5165 7.49819   1
  16  -6   0 1.62597 4.18843   3
   0 -16  -6 -1.5600 2.43361   3
   0  16   6 0.46048 3.46943   1
  -6   0 -16 0.02530 2.60067   4
  -6   0  16 0.37511 3.40434   2
   0 -16   6 5.76568 4.15975   2
 -16   8   0 3037.66 75.8323   2
  -8   0  16 3434.03 110.550   2
   8   0 -16 3004.28 75.4576   4
 -16   1   1 -3.2844 2.59442   3
   1  -1  16 0.97016 2.86955   1
  -1  -1 -16 4.95212 3.58429   4
   1   1 -16 5.29610 4.19010   4
  16   1  -1 -1.5726 2.39143   4
   1  16  -1 1.80059 3.55250   1
  -1  16   1 5.79892 3.03407   1
  -1   1  16 3.90594 3.19247   1
   1 -16   1 2.32426 3.03517   2
 -16  -1  -1 0.97663 3.11589   3
  -1 -16  -1 8.44941 4.57323   2
  16  -1   1 3.29945 3.39775   4
   1   1  16 2.97260 2.79186   1
  -1  -1  16 1.99011 3.19029   1
  16  -1  -1 1.45011 2.75928   4
 -16  -1   1 2.49542 3.60802   3
  -1   1 -16 -0.7323 2.26739   4
   1  16   1 2.72708 4.10650   1
   1 -16  -1 -0.0039 2.77168   2
 -16   1  -1 1.79697 3.09250   3
   1  -1 -16 0.46524 2.71229   4
  -1  16  -1 3.30147 2.73562   1
  -1 -16   1 5.84178 3.47888   2
  16   1   1 -3.1126 1.86106   4
   1 -16   3 12.5475 5.15666   2
 -16  -3  -1 2.09149 3.60810   3
   3  -1  16 8.57539 4.26755   1
  -3  -1 -16 5.33079 3.06062   4
 -16   3   1 2.86361 3.26389   3
  16  -3   1 1.98992 2.63869   4
  16   3  -1 1.72437 2.65986   4
  -1 -16  -3 6.36878 4.20246   3
   3   1 -16 5.72137 3.96637   4
   1  16  -3 2.54406 3.94363   1
  -1  16   3 9.34827 4.74384   1
 -16   3  -1 4.53016 4.03841   3
   3   1  16 9.41613 4.30315   1
  16   3   1 7.71201 4.19094   4
  -1 -16   3 3.09064 3.29867   2
  -1  16  -3 5.01001 3.87078   1
  16  -3  -1 1.54102 4.13231   3
  -3   1 -16 -0.1833 2.52644   4
   1  16   3 2.02812 3.67951   1
  16  -3  -1 3.64961 2.98493   4
 -16  -3   1 18.0857 7.33324   3
   3  -1 -16 2.51521 3.07690   4
   1 -16  -3 4.13745 3.69416   3
   1 -16  -3 6.78925 4.04018   2
  16   5  -1 8.62467 4.30341   4
 -16   5   1 3.23482 3.39762   2
  -5  -1 -16 0.61142 2.55203   4
  -1  16   5 2.58902 3.78422   1
   1  16  -5 5.07950 4.03155   1
   1 -16   5 3.38638 3.01090   2
   5   1 -16 7.77193 4.25298   4
   5  -1  16 4.52041 3.99543   1
 -16  -5  -1 7.43448 4.46226   3
 -16   5   1 1.74615 2.90766   3
  -1 -16  -5 8.14764 4.79587   3
  16  -5   1 5.53682 5.15590   3
  16   5   1 2.42939 3.02899   4
   5  -1 -16 1.29158 3.29826   4
 -16  -5   1 -1.1889 2.72243   3
 -16   5  -1 7.89280 4.87969   3
   1 -16  -5 2.27776 3.14251   3
  -5   1 -16 3.56361 2.91568   4
   5   1  16 6.04730 4.41307   1
  -1  16  -5 -0.1928 2.51955   1
   1  16   5 7.57136 4.50648   1
  -5  -1  16 1.58589 3.04337   2
  -1 -16   5 6.76099 4.19423   2
  16  -5  -1 2.65828 4.29362   3
  16  -7   1 4.67951 4.98171   3
 -16   7   1 3.15000 3.65904   2
   1  16  -7 6.52023 4.07921   1
  -1  16   7 11.0612 5.93217   1
 -16  -7  -1 8.20883 5.69336   3
  -7   1  16 4.78681 4.80032   2
   7   1 -16 6.45849 3.97806   4
  -1 -16  -7 0.68206 3.79818   3
  16   7   1 7.51177 6.28139   4
   7  -1 -16 2.56968 2.94555   4
 -16   7  -1 12.4327 5.93431   3
  -1 -16   7 8.51279 7.58078   2
 -16  -7   1 5.49482 4.87085   3
  16  -7  -1 8.31945 5.96130   3
   1 -16  -7 8.91674 5.82292   3
  -7  -1  16 -1.4253 3.25845   2
  -1  16  -7 8.81384 8.06752   1
   2  16   0 23.5314 7.91540   1
  -2 -16   0 22.2942 6.45005   2
 -16   0   2 28.8656 8.46736   3
   0   2  16 74.6879 12.4866   1
   2 -16   0 28.6975 7.38531   2
  16   0   2 23.5820 6.23970   4
  -2  16   0 26.2339 6.89057   1
   0  -2  16 32.9310 8.12176   1
   0  -2 -16 19.4783 5.35412   4
 -16   0  -2 22.3284 7.37079   3
   0   2 -16 22.4873 6.32298   4
  16   0  -2 14.5901 4.96435   4
   2 -16   2 19.6451 6.25145   2
  -2 -16  -2 2.74600 3.24675   3
 -16   2   2 2.96093 4.14272   3
  -2  -2 -16 4.31980 3.35032   4
  -2  16   2 5.55014 3.31999   1
   2   2 -16 4.57605 3.78501   4
  16   2  -2 5.07347 4.06151   4
   2  16  -2 4.38048 4.03792   1
   2  -2  16 8.06325 4.13364   1
  16  -2   2 6.33359 3.78817   4
 -16  -2  -2 1.31812 2.91819   3
   2  16   2 3.48455 4.37818   1
   2 -16  -2 9.77279 4.61422   3
  -2  16  -2 6.73753 3.75818   1
 -16  -2   2 6.03365 5.04749   3
   2   2  16 8.96455 4.74832   1
   2  -2 -16 4.06926 3.37023   4
  -2   2 -16 0.88998 2.83724   4
  -2 -16   2 1.14921 2.74253   2
  16  -2  -2 8.30221 4.23980   4
  16   2   2 5.53971 4.10052   4
   2 -16  -2 6.09148 3.94903   2
 -16   2  -2 22.3437 7.06046   3
   2 -16   4 875.595 35.6749   2
  -2 -16  -4 906.146 35.5909   3
  -2  16   4 916.540 36.8895   1
 -16   4   2 886.872 35.2718   2
 -16  -4  -2 905.477 36.8220   3
  16   4  -2 872.633 32.6182   4
 -16   4   2 849.849 36.1578   3
  -4  -2 -16 893.617 31.4784   4
   4  -2  16 872.271 36.9354   1
   4   2 -16 914.330 32.8899   4
  -2  16   4 897.682 34.2791   2
   2  16  -4 950.038 37.5767   1
  16  -4  -2 883.275 37.7198   3
   2 -16  -4 943.643 42.5384   2
   4   2  16 883.048 37.6674   1
  -4  -2  16 862.461 33.6446   2
  -4   2 -16 905.871 32.6100   4
 -16   4  -2 916.713 37.2023   3
  -2  16  -4 833.949 35.9279   1
 -16  -4   2 889.084 36.2853   3
  -2 -16   4 878.305 34.9489   2
   2  16   4 859.536 36.6017   1
   4  -2 -16 861.916 30.7344   4
  16   4   2 874.068 31.9261   4
   2 -16  -4 888.556 35.7017   3
  -2  16   6 13.7652 6.04827   1
  -2 -16  -6 9.17176 4.62362   3
 -16   6   2 5.21214 3.61786   2
  -6  -2 -16 10.3626 4.41787   4
   2  16  -6 19.2856 6.62657   1
   6   2 -16 6.54122 4.58970   4
 -16  -6  -2 11.9160 5.95916   3
  16  -6   2 10.9331 6.21956   3
  16   6  -2 7.63555 4.54502   4
  -6   2  16 11.5570 5.77013   2
   2 -16   6 7.18685 4.18468   2
   6  -2  16 23.0666 7.73640   1
   2  16   6 17.5864 6.55429   1
   6  -2 -16 7.27966 4.35620   4
  -6  -2  16 10.2457 5.23002   2
  -2  16  -6 9.21124 5.05391   1
  16   6   2 13.1983 5.00687   4
  -2 -16   6 24.7355 7.80971   2
   6   2  16 11.5427 5.87778   1
 -16  -6   2 9.46283 5.35436   3
 -16   6  -2 13.5151 6.14242   3
   2 -16  -6 9.11618 4.39358   3
  16  -6  -2 11.0149 5.86092   3
  -6   2 -16 11.2876 4.84907   4
  16  -8   2 1.31850 5.17232   3
  -8   2  16 -3.4210 4.28170   2
 -16   8  -2 1.98178 3.62508   3
   1   3 -16 2.80428 3.57006   4
 -16   1   3 4.74768 4.67310   3
  16   1  -3 8.13360 4.75441   4
 -16   1   3 7.02455 4.46418   2
   3  16  -1 1.77478 3.60944   1
   3 -16   1 6.87688 3.91237   2
  -1   3  16 1.89749 2.70354   1
 -16  -1  -3 3.26492 3.10243   3
  -3  16   1 6.76933 3.44688   1
  16  -1   3 5.42040 3.09685   4
   1  -3  16 11.1147 4.88649   1
  -1  -3 -16 8.95082 4.23227   4
  16   1   3 6.60462 3.75873   4
 -16   1  -3 4.47671 4.04792   3
  -3 -16   1 1.07385 2.80803   2
  -3  16  -1 -0.4279 2.43752   1
   3  16   1 1.05391 3.91998   1
  -1   3 -16 4.51311 3.51632   4
 -16  -1   3 3.27010 3.85942   3
  -1  -3  16 2.69125 3.02701   1
   1  -3 -16 7.93254 3.75413   4
   3 -16  -1 5.43211 4.29757   2
   1   3  16 12.6699 5.18799   1
  16  -1  -3 4.61535 3.69863   4
  -3  16   3 0.43862 3.08462   2
   3  -3  16 -1.3618 2.43797   1
   3  16  -3 2.81282 3.75850   1
  -3  16   3 -0.5315 2.69655   1
   3 -16   3 0.46850 2.91026   2
 -16   3   3 7.23209 4.66211   3
  -3 -16  -3 -1.1447 2.58790   3
  16  -3   3 1.15811 2.86062   4
  -3  -3 -16 5.45867 3.44654   4
 -16  -3  -3 0.44075 2.40233   3
 -16   3   3 0.96853 3.18651   2
  16   3  -3 1.81317 3.24307   4
   3   3 -16 6.89606 4.07331   4
   3 -16  -3 -0.0451 3.24144   2
   3   3  16 2.92357 3.48102   1
  -3  16  -3 5.02572 3.58598   1
   3  -3 -16 2.49470 3.29609   4
 -16  -3   3 -1.0807 3.54321   3
   3  16   3 4.99269 4.51013   1
  16  -3  -3 6.13604 4.36720   3
 -16   3  -3 0.33812 3.00040   3
  16   3   3 4.26312 3.34417   4
  -3 -16   3 2.22208 2.25658   2
  -3   3 -16 5.02617 3.49869   4
  -3  -3  16 3.17614 3.44817   2
   3 -16  -3 2.60321 3.49278   3
  -3  16   5 2.40450 5.59348   2
  -3  16   5 2.94734 3.29578   1
   3  16  -5 6.13460 3.93405   1
   3 -16   5 0.50013 2.99895   2
   5  -3  16 1.69193 3.91838   1
 -16  -5  -3 1.13078 3.37140   3
 -16   5   3 3.91811 3.39233   2
   5   3 -16 3.14360 3.45471   4
  16   5  -3 4.04558 3.58089   4
  -5  -3 -16 2.03613 2.61868   4
  -3 -16  -5 1.27162 3.49935   3
  -3  16  -5 2.18500 3.69902   1
   3 -16  -5 1.68333 2.76421   3
  16   5   3 0.67926 2.52125   4
  -5  -3  16 0.69943 3.57757   2
  -5   3 -16 0.73295 2.48778   4
 -16   5  -3 2.05532 4.02991   3
   5   3  16 1.14844 2.96532   1
   3  16   5 5.55788 4.63181   1
 -16  -5   3 -1.6211 3.17477   3
  16  -5  -3 1.57981 4.00130   3
  -3 -16   5 -1.5506 2.65029   2
 -16   7   3 5.58359 4.70469   2
  -3  16   7 3.28518 5.10399   1
  -7   3  16 4.24605 4.63822   2
   3  16  -7 6.16120 4.42611   1
  -7  -3  16 0.22251 4.02183   2
 -16  -7   3 5.93820 5.62633   3
 -16   7  -3 2.18255 3.79727   3
 -16   0   4 872.533 35.4112   2
   0  -4  16 841.501 34.5010   1
 -16   0  -4 870.813 35.6376   3
   0  -4 -16 909.943 30.5213   4
  16   0  -4 884.528 31.4971   4
  -4  16   0 930.196 36.7290   1
   0   4 -16 905.693 32.8012   4
   0   4  16 920.970 36.5094   1
   4 -16   0 951.359 36.8636   2
   4  16   0 898.344 36.9607   1
 -16   0   4 935.021 37.5179   3
  16   0   4 880.786 31.6297   4
  16  -2   4 855.630 30.9375   4
  -2  -4 -16 890.486 30.6199   4
  -4  16   2 924.565 36.7387   1
 -16   2   4 893.465 36.8276   2
 -16   2   4 923.631 37.5979   3
  -4 -16  -2 923.242 35.3238   3
   2   4 -16 865.919 32.7133   4
  16   2  -4 876.679 32.1472   4
   4  16  -2 909.873 36.8290   1
   2  -4  16 874.512 36.1309   1
   4 -16   2 872.216 35.5853   2
 -16  -2  -4 865.876 35.7978   3
  -4  16   2 867.253 34.9045   2
 -16   2  -4 928.755 36.8490   3
  16   2   4 840.854 31.2882   4
  -2   4 -16 875.346 32.2189   4
  -4  16  -2 914.992 36.8153   1
  -4 -16   2 882.748 33.5178   2
   2   4  16 873.302 36.7047   1
   4 -16  -2 939.273 36.5602   2
   4 -16  -2 898.526 35.2543   3
 -16  -2   4 917.187 36.9100   3
  -2  -4  16 854.178 37.1408   2
   4  16   2 907.886 37.4735   1
  16  -2  -4 872.740 37.2541   3
  16  -2  -4 897.106 30.9851   4
  16  -4   4 5.20448 3.72284   4
  -4  16   4 3.87236 4.01755   2
 -16   4   4 9.72448 4.80710   2
   4  16  -4 3.47250 3.92683   1
 -16  -4  -4 3.59189 3.76526   3
  -4  -4 -16 2.27288 2.98337   4
  -4  16   4 10.6227 4.81960   1
  16   4  -4 -0.8986 3.17760   4
   4  -4  16 8.61427 5.13558   1
   4   4 -16 -0.5980 3.25722   4
   4 -16   4 2.50134 4.02004   2
  -4 -16  -4 6.87286 4.37104   3
  16   4   4 -0.6287 2.72601   4
  -4  16  -4 7.10022 4.67215   1
   4 -16  -4 3.27582 3.19547   2
  -4   4 -16 2.93995 3.24506   4
   4   4  16 5.70753 3.41599   1
  16  -4  -4 -0.1543 2.92626   3
   4 -16  -4 3.17030 3.93763   3
   4  16   4 3.61048 4.16791   1
 -16  -4   4 0.58424 3.92664   3
 -16   4  -4 4.53613 4.27915   3
  -4 -16   4 1.62917 2.96029   2
  -4  -4  16 3.78972 3.51633   2
  -4  16   6 662.455 31.5913   1
   4  16  -6 655.919 31.3063   1
 -16   6   4 664.122 32.4584   2
  -4 -16  -6 608.915 31.6448   3
  -6  -4 -16 686.033 27.8894   4
 -16   6  -4 653.917 31.1530   3
  -6  -4  16 714.295 32.4809   2
   4 -16  -6 703.435 33.8581   3
 -16  -6   4 676.285 31.5069   3
  -4 -16   6 676.091 31.7408   2
   5  16  -1 3.43894 4.30517   1
  16  -1   5 2.05446 3.04086   4
   1  -5  16 5.05582 4.09413   1
  16   1  -5 3.29631 3.34235   4
  -1   5  16 3.10787 2.97077   1
   1   5 -16 2.74405 3.14801   4
 -16   1   5 8.64091 5.47443   2
  -5  16   1 7.68345 3.70553   1
   5 -16   1 8.84572 4.80142   2
 -16   1   5 8.33062 5.34633   3
 -16  -1  -5 4.58701 3.38582   3
  -1  -5  16 7.62161 4.19528   1
  16  -1  -5 6.23415 3.70930   4
 -16  -1   5 7.17322 4.32937   2
 -16   1  -5 5.04725 3.83997   3
  16   1   5 2.84208 3.40064   4
 -16  -1   5 5.07065 4.74292   3
  -5  16  -1 6.85165 4.29972   1
  16  -1  -5 5.63093 4.32359   3
   5  16   1 4.36672 4.87850   1
  -1   5 -16 2.78311 2.54596   4
   1   5  16 0.05013 3.04703   1
   5 -16  -1 -0.8475 2.89218   2
   5  16  -3 2.37129 3.83934   1
   3  -5  16 0.36278 2.46683   1
  -3  -5 -16 1.26010 2.82504   4
 -16  -3  -5 0.36799 2.36494   3
   5 -16   3 -0.3228 2.96662   2
  -5  16   3 2.63667 2.69124   1
  -5  16   3 1.04481 3.67903   2
   3   5 -16 0.88233 3.21819   4
  16   3  -5 5.56521 4.35760   4
 -16   3   5 10.7838 5.58436   2
 -16   3   5 1.87837 3.70827   3
  -5 -16  -3 5.16586 4.17312   3
  16  -3   5 1.55865 2.91552   4
  -5  16  -3 -1.4420 2.91524   1
 -16  -3   5 3.56627 4.62975   3
  16  -3  -5 1.51443 3.50126   3
  -3   5 -16 7.76714 4.00962   4
 -16   3  -5 4.55750 3.75979   3
  -5 -16   3 -1.3477 2.16600   2
   3   5  16 0.14478 3.36798   1
   5 -16  -3 -0.0168 2.95331   2
   5  16   3 -1.3085 2.99663   1
  16   3   5 -1.7140 2.35138   4
  -3  -5  16 4.93154 3.95854   2
   5 -16  -3 0.02283 3.30891   3
  -5  16   5 1.19459 3.49909   1
  -5  -5 -16 4.10179 2.97772   4
  -5  16   5 2.89561 3.96217   2
   5  16  -5 12.1393 5.60162   1
  -5 -16  -5 1.92451 3.20032   3
 -16   5   5 2.95502 3.84258   2
  -5  -5  16 1.79298 3.49857   2
   5 -16  -5 2.18299 3.68724   3
 -16   5  -5 -1.4096 3.36111   3
  -5 -16   5 -0.5299 2.74488   2
   5  16   5 0.58368 3.37372   1
  -5  16  -5 0.93795 4.69967   1
 -16  -5   5 -1.8538 2.75279   3
   0   6 -16 18.5976 6.17362   4
  16   0  -6 -0.2649 3.17701   4
 -16   0   6 1.33668 3.64688   3
 -16   0   6 1.01065 3.71084   2
 -16   0  -6 3.20692 2.94397   3
   0   6  16 31.2445 8.43689   1
   6 -16   0 1.49161 3.06855   2
   6  16   0 1.14306 4.21643   1
   0  -6  16 5.27427 3.99879   1
  -6  16   0 2.38831 2.93016   1
  16   0   6 2.93964 3.21017   4
  -6 -16  -2 11.1567 5.27885   3
 -16   2   6 15.7465 6.68318   2
 -16  -2  -6 9.45043 5.14517   3
  16   2  -6 21.9800 6.89404   4
  -6  16   2 26.4726 7.44471   1
  -6  16   2 12.5793 5.80119   2
   2  -6  16 10.8968 5.39760   1
   6 -16   2 9.86914 4.88761   2
   6  16  -2 12.8491 6.21109   1
 -16   2   6 13.3289 6.18040   3
   2   6 -16 8.13637 4.58208   4
  16  -2   6 6.81457 3.83408   4
  -6  16  -2 19.0724 6.72031   1
  16   2   6 13.0174 5.17669   4
   6  16   2 8.09218 5.61227   1
   2   6  16 14.5908 6.07965   1
  -2   6 -16 14.0999 5.24752   4
   6 -16  -2 8.29168 4.64552   3
 -16   2  -6 11.7236 5.79338   3
 -16  -2   6 9.64408 4.91165   2
  -2  -6  16 7.64377 4.99737   2
  16  -2  -6 6.27306 4.57676   3
 -16  -2   6 11.6826 6.13965   3
   6 -16  -2 11.6744 5.71255   2
 -16   4   6 659.528 33.1783   2
   6  16  -4 699.077 38.1548   1
  -6  16   4 655.932 30.7745   1
   4  -6  16 656.216 48.2851   1
  -6 -16  -4 667.493 31.8697   3
  16  -4   6 638.548 26.7667   4
  -6  16   4 661.456 31.3594   2
  -4  -6  16 643.062 30.8959   2
 -16   4  -6 640.094 30.2822   3
   6  16   4 663.141 32.8699   1
  -6 -16   4 664.183 31.2380   2
  -6  16  -4 661.766 37.6322   1
 -16   4  -6 697.189 27.6252   4
 -16  -4   6 716.006 32.1332   3
   6 -16  -4 688.667 32.3453   3
  -6  16   6 37.7564 9.78031   1
   1  -7  16 8.19853 4.87059   1
 -16  -1  -7 9.66991 4.83501   3
   1   7 -16 7.21965 5.05807   1
  -7  16   1 7.73628 7.82172   2
   7  16  -1 6.11637 4.66899   1
   1   7 -16 4.84314 5.29971   4
  -7  16   1 8.63095 5.14941   1
  -1   7  16 5.46483 4.67196   1
 -16   1   7 4.42092 4.68423   3
 -16   1   7 5.04554 4.56773   2
  16  -1   7 7.88886 4.38618   4
  16   1  -7 4.62335 3.42890   4
  16   1   7 6.66540 5.58899   4
   7 -16  -1 15.9078 7.71485   2
  16  -1  -7 14.0599 5.91310   4
  -7  16  -1 2.62431 3.93628   1
   7  16   1 2.09105 4.11226   1
  16  -1  -7 13.9979 6.07062   3
 -16   1  -7 8.04063 4.23731   3
  -1  -7  16 1.58227 2.74314   1
  -1  -7  16 10.8656 5.65231   2
  -1   7 -16 5.94594 4.09438   4
 -16  -1   7 11.0591 6.03656   2
 -16  -1   7 4.76703 4.38722   3
   1   7  16 1.75871 3.40832   1
  -7  16   3 2.24068 3.58780   1
  16  -3   7 4.62224 3.73727   4
  -7 -16  -3 5.72529 4.36446   3
 -16  -3   7 6.68844 4.39872   2
 -16   3  -7 0.08249 2.94962   4
  -7  16  -3 14.0395 7.69388   1
 -16  -3   7 2.51485 4.31437   3
  -3  -7  16 9.50751 5.37894   2
   7 -16  -3 3.12950 4.25360   3
   7  16   3 0.60904 3.71949   1
   0   8 -16 3170.82 78.8028   1
   0   8  16 3073.18 79.7221   1
  16   0  -8 3071.66 78.2322   3
  16   0  -8 3051.63 70.2703   4
 -16   0  -8 3118.88 76.2600   3
 -16   0   8 3252.42 78.3723   3
  -8  16   0 3155.70 76.4352   1
   0  -8  16 3252.47 78.6404   1
   0  -8  16 3152.03 76.1945   2
  -8 -16  -2 0.97566 3.47461   3
   8  16   2 14.3132 6.55105   1
   8 -16  -2 7.25097 5.31128   3
  -8  16  -2 5.20942 5.99164   1
   0  17  -1 0.05462 2.91350   1
   0  17   1 1.96412 3.54258   1
   1   0 -17 5.41682 4.10634   4
   1   0  17 9.07643 5.34090   1
  17  -1   0 1.97146 3.07221   4
  17   1   0 3.87381 3.13135   4
  -1   0  17 0.14215 2.99546   1
   0 -17  -1 5.48178 4.34495   2
   0 -17   1 0.85340 3.20821   2
 -17  -1   0 0.78580 3.57530   3
 -17   1   0 2.53073 4.27816   3
  -1   0 -17 7.41653 3.99101   4
   0 -17   3 0.71823 2.59782   2
   0  17  -3 5.48789 4.42227   1
   0  17   3 5.31420 4.33074   1
  -3   0 -17 -0.5782 2.79728   4
   0 -17  -3 2.21258 3.05775   3
   3   0 -17 4.14284 3.71646   4
   3   0  17 -0.0529 3.05454   1
 -17  -3   0 -2.7469 2.98397   3
  17   3   0 3.24109 3.31823   4
 -17   3   0 4.49956 4.07402   3
   0 -17  -5 5.91608 4.63753   3
   5   0 -17 0.65364 3.36357   4
  17   0  -1 1.52526 3.42748   4
   0  -1  17 4.68636 3.39853   1
  17   0   1 4.50781 3.44252   4
   0   1 -17 -1.0871 2.64478   4
   0  -1 -17 7.66029 4.05291   4
 -17   0   1 14.0712 6.83882   3
  -1 -17   0 0.44021 2.72945   2
 -17   0  -1 4.24587 4.38072   3
   1 -17   0 4.48432 3.88522   2
  -1  17   0 0.82648 2.87419   1
   1  17   0 -1.1419 2.95401   1
   0   1  17 2.11657 3.04850   1
  17   2  -1 140.925 12.7553   4
  17  -2   1 136.433 12.1284   4
   1 -17   2 160.010 14.8561   2
   1  17  -2 156.876 15.6166   1
 -17  -2  -1 150.846 15.2311   3
   2   1 -17 154.855 13.5409   4
  -1  17   2 140.079 14.7264   1
 -17   2   1 139.001 15.1040   3
  -2  -1 -17 158.957 13.1716   4
   2  -1  17 156.695 15.3501   1
  -1 -17   2 156.995 14.3918   2
   2   1  17 145.155 14.8073   1
   1 -17  -2 160.987 14.6771   2
 -17  -2   1 145.280 15.2642   3
 -17   2  -1 155.265 15.4661   3
  17  -2  -1 145.490 12.4363   4
   2  -1 -17 138.744 12.6562   4
  -2   1 -17 164.444 13.5126   4
  17   2   1 145.675 12.9397   4
   1  17   2 169.857 16.3457   1
  -1  17  -2 147.850 14.8506   1
   4  -1  17 0.48356 3.44208   1
   1 -17   4 11.7425 5.04230   2
  -4  -1 -17 2.32506 2.90014   4
   4   1 -17 1.07008 3.37523   4
   1  17  -4 2.01124 3.41062   1
  -1 -17  -4 6.57832 3.99436   3
   4  -1 -17 4.53681 3.97708   4
 -17  -4   1 0.04974 4.14290   3
 -17   4  -1 3.36208 3.87038   3
   4   1  17 5.45650 3.96740   1
  -1 -17   4 3.26612 3.70373   2
   1 -17  -4 -0.8601 3.12097   3
   6  -1 -17 170.918 16.2595   4
  -6  -1  17 138.742 14.6711   2
  -2  17   1 150.648 15.2591   1
 -17  -1  -2 166.569 15.5798   3
   1   2 -17 161.505 13.7961   4
   2 -17   1 158.385 14.9599   2
 -17   1   2 150.270 15.5171   3
  -1  -2 -17 152.342 12.9656   4
  17   1  -2 153.379 13.2033   4
   1  -2  17 147.479 14.6762   1
  -1   2  17 157.163 14.7198   1
  17  -1   2 154.449 12.9499   4
   2  17  -1 155.960 15.6072   1
  -2 -17   1 154.380 13.9198   2
  -1   2 -17 152.412 13.4345   4
   2 -17  -1 169.593 15.0562   2
   1  -2 -17 138.874 12.3472   4
   2  17   1 154.612 15.5731   1
   1   2  17 147.113 14.5866   1
  17   1   2 174.816 14.0969   4
 -17   1  -2 151.027 15.1904   3
 -17  -1   2 172.127 16.3978   3
  17  -1  -2 147.423 12.8386   4
  -2  17  -1 148.103 14.9750   1
 -17  -3  -2 153.619 22.4292   3
  -3  -2 -17 157.162 13.2300   4
  -2  17   3 161.217 14.7996   2
  -2  17   3 150.932 15.5683   1
   3   2 -17 159.916 14.3795   4
  -2 -17  -3 183.433 15.8583   3
   2  17  -3 177.928 16.5243   1
  17   3  -2 174.793 14.5911   4
  17  -3   2 182.375 13.6698   4
   2 -17   3 154.004 14.9930   2
 -17   3   2 147.879 23.7631   3
   3  -2  17 165.277 15.9830   1
  -2  17  -3 138.369 22.0099   1
  -2 -17   3 172.289 15.3405   2
   3  -2 -17 178.475 14.2081   4
   3   2  17 160.800 15.8425   1
 -17  -3   2 166.498 16.3260   3
 -17   3  -2 177.934 16.4322   3
  17   3   2 166.998 15.8936   4
  -3   2 -17 193.384 21.8855   4
   2 -17  -3 168.203 14.9890   2
   2  17   3 124.824 19.7045   1
   2 -17  -3 203.574 16.6415   3
  -2 -17  -5 168.763 28.9204   3
 -17   5   2 173.849 24.1773   2
  -5  -2  17 145.849 14.1520   2
   2 -17  -5 173.502 25.1325   3
   5  -2 -17 195.459 14.8780   4
   0   3 -17 2.50770 3.30315   4
   3  17   0 2.35219 3.84638   1
 -17   0  -3 0.36071 2.93261   3
 -17   0   3 1.77120 4.10451   3
   0   3  17 3.61497 2.90755   1
   3 -17   0 1.56920 3.04414   2
  17   0   3 5.94440 3.46708   4
  -3  17   0 4.49543 4.13147   1
   0  -3  17 5.96596 3.83764   1
  17   0  -3 4.90919 3.81490   4
   0  -3 -17 2.38041 3.16134   4
   2  -3  17 183.432 16.6770   1
   3  17  -2 170.684 16.3595   1
  -2  -3 -17 164.339 13.3840   4
 -17  -2  -3 167.965 18.1725   3
   3 -17   2 164.080 15.5162   2
 -17   2   3 189.337 20.1880   3
  -3  17   2 174.978 16.2215   1
  17  -2   3 182.302 14.0279   4
   2   3 -17 151.978 18.6551   4
  17   2  -3 169.881 14.3303   4
  -2   3 -17 175.790 16.8160   4
  17  -2  -3 172.373 13.5282   4
   2   3  17 186.571 16.7673   1
   3 -17  -2 181.784 16.0383   2
 -17  -2   3 164.352 16.0361   3
  -3  17  -2 164.155 18.2806   1
   2  -3 -17 162.201 13.1533   4
   3  17   2 167.624 16.8062   1
  17   2   3 186.363 14.8158   4
  -3 -17   2 162.976 14.4987   2
 -17   2  -3 191.045 17.0841   3
  -3  17   4 6.88475 4.83893   2
  -4  -3 -17 4.96940 3.26200   4
 -17   4   3 -0.7783 3.26034   2
   3  17  -4 2.75854 4.11312   1
  -3 -17  -4 6.73623 4.63909   3
   3 -17  -4 2.22188 3.50062   3
 -17   4  -3 2.78284 4.12835   3
  -3 -17   4 3.38783 3.01280   2
 -17  -4   3 7.46088 7.65597   3
  -4  -3  17 3.40832 3.39055   2
   3 -17  -4 10.9929 6.34773   2
  17   1  -4 1.42361 3.29983   4
  -1   4  17 8.12513 4.45393   1
  -4  17   1 0.26585 3.19563   1
 -17  -1  -4 2.62983 3.92171   3
  17  -1   4 6.56411 3.64593   4
   1  -4  17 -0.9559 2.84873   1
   4  17  -1 -1.0540 3.51147   1
 -17   1   4 5.44583 7.05126   3
   4 -17   1 4.91604 4.31079   2
  -1  -4 -17 4.15170 3.34693   4
  -4  17  -1 2.05122 3.90894   1
  17  -1  -4 4.30089 3.79854   4
   1   4  17 2.21335 2.97413   1
 -17  -1   4 3.40723 4.52121   3
   4  17   1 4.67080 4.54402   1
  17   1   4 -1.9610 2.74911   4
   4 -17  -1 4.20549 3.84548   2
 -17   1  -4 2.47677 3.84317   3
  17  -3   4 7.38853 4.25999   4
  -4 -17  -3 4.70959 3.47950   3
   4  17  -3 -0.9552 3.04242   1
  -4  17   3 -3.9627 3.81596   1
  -4  17   3 2.49640 4.08802   2
 -17   3   4 7.89118 5.32067   2
  -3  -4 -17 9.47902 4.52281   4
 -17   3  -4 -2.4556 2.96179   3
   4 -17  -3 4.05411 4.44931   3
 -17  -3   4 -0.3248 3.79992   3
  -4 -17   3 4.84374 4.58241   2
   4 -17  -3 6.02069 4.17143   2
  -4  17   5 7.87734 9.27257   2
   5  17   0 4.09105 4.21103   1
  17   0  -5 -1.7834 3.10082   4
 -17   0   5 3.88965 4.32431   2
   0  -5  17 -0.1462 3.13670   1
   0   5  17 0.97425 3.56942   1
 -17   0  -5 4.26648 5.23283   3
   5  17  -2 158.687 16.2767   1
 -17   2   5 182.721 17.4258   2
  17  -2   5 199.688 15.3530   4
 -17   2  -5 163.143 22.6177   3
  -4  -5 -17 15.3975 5.67014   4
  -5 -17   4 13.2302 5.54847   2
  -1   6  17 161.217 25.7581   1
   6  17  -1 157.819 28.6244   1
 -17   1   6 174.168 27.0999   2
 -17  -1   6 143.708 15.0083   2
  17  -1  -6 139.464 12.8354   4
   0 -18   0 0.95169 2.96819   2
   0   0  18 -4.8808 2.71684   1
  18  -2   0 6.18357 3.36536   4
  18  -1  -1 95.6506 17.9042   4
  -1 -18   1 114.500 15.5796   2
   1 -18  -1 104.755 14.8555   2
   0  -2  18 10.0371 5.67487   1
   0   2  18 6.05608 4.04720   1
   2 -18  -2 4.61012 4.45142   2
   0   0   0    0.00    0.00   0

 _exptl_absorpt_process_details 'SADABS 2014/4'
 _exptl_absorpt_correction_type   multiscan
 _exptl_absorpt_correction_T_max  0.7460
 _exptl_absorpt_correction_T_min  0.6793
 _exptl_special_details
)
 The following wavelength and cell were deduced by SADABS from the
 direction cosines etc. They are given here for emergency use only:
 CELL 0.71073   12.957   12.957   12.953   89.995   90.032   90.014
)

;
_shelx_hkl_checksum   97129

